MODEL 1
REMARK minimizedAffinity -8.53688717
REMARK minimizedRMSD -1
REMARK  11 active torsions:
REMARK  status: ('A' for Active; 'I' for Inactive)
REMARK    1  A    between atoms: N_1  and  S_2 
REMARK    2  A    between atoms: S_2  and  C_5 
REMARK    3  A    between atoms: C_8  and  C_9 
REMARK    4  A    between atoms: C_9  and  C_10 
REMARK    5  A    between atoms: C_14  and  N_15 
REMARK       I    between atoms: N_15  and  C_16 
REMARK       I    between atoms: C_16  and  N_18 
REMARK    6  A    between atoms: N_18  and  C_19 
REMARK    7  A    between atoms: C_21  and  C_22 
REMARK    8  A    between atoms: C_22  and  C_23 
REMARK    9  A    between atoms: C_23  and  N_24 
REMARK       I    between atoms: N_24  and  C_25 
REMARK   10  A    between atoms: C_25  and  C_27 
REMARK   11  A    between atoms: C_30  and  O_31 
ROOT
HETATM    1  C   LIG     1     -11.062  13.698  67.226  1.00  0.00     0.051 C 
HETATM    2  C   LIG     1     -11.856  13.240  66.245  1.00  0.00    -0.063 C 
HETATM    3  C   LIG     1     -11.795  13.782  64.829  1.00  0.00     0.045 C 
HETATM    4  C   LIG     1     -11.196  15.194  64.835  1.00  0.00     0.250 C 
HETATM    5  O   LIG     1     -11.595  16.040  64.036  1.00  0.00    -0.271 OA
HETATM    6  N   LIG     1     -10.141  15.431  65.679  1.00  0.00    -0.224 NA
HETATM    7  C   LIG     1     -10.097  14.751  66.778  1.00  0.00     0.031 C 
HETATM    8  H   LIG     1     -12.583  12.455  66.429  1.00  0.00     0.081 H 
HETATM    9  H   LIG     1     -12.827  13.883  64.468  1.00  0.00     0.061 H 
HETATM   10  H   LIG     1      -9.232  14.947  67.421  1.00  0.00     0.118 H 
ENDROOT
BRANCH   1  11
HETATM   11  N   LIG     1     -11.106  13.185  68.507  1.00  0.00    -0.308 N 
HETATM   12  C   LIG     1     -11.556  11.921  68.858  1.00  0.00     0.325 C 
HETATM   13  N   LIG     1     -11.469  11.669  70.220  1.00  0.00    -0.309 N 
HETATM   14  O   LIG     1     -11.968  11.116  68.033  1.00  0.00    -0.247 OA
HETATM   15  H   LIG     1     -10.801  12.215  70.745  1.00  0.00     0.170 HD
HETATM   16  H   LIG     1     -10.787  13.786  69.253  1.00  0.00     0.170 HD
BRANCH  13  17
HETATM   17  C   LIG     1     -11.917  10.456  70.814  1.00  0.00     0.036 A 
HETATM   18  C   LIG     1     -13.205  10.322  71.338  1.00  0.00    -0.057 A 
HETATM   19  C   LIG     1     -13.679   9.088  71.762  1.00  0.00    -0.080 A 
HETATM   20  H   LIG     1     -13.888  11.164  71.408  1.00  0.00     0.086 H 
HETATM   21  C   LIG     1     -12.852   7.972  71.713  1.00  0.00    -0.076 A 
HETATM   22  H   LIG     1     -14.707   8.996  72.105  1.00  0.00     0.083 H 
HETATM   23  C   LIG     1     -11.520   8.082  71.290  1.00  0.00    -0.052 A 
HETATM   24  H   LIG     1     -13.278   7.017  72.008  1.00  0.00     0.084 H 
HETATM   25  C   LIG     1     -11.061   9.341  70.840  1.00  0.00    -0.051 A 
HETATM   26  H   LIG     1     -10.045   9.429  70.464  1.00  0.00     0.087 H 
BRANCH  23  27
HETATM   27  C   LIG     1     -10.620   6.863  71.193  1.00  0.00    -0.017 C 
HETATM   28  H   LIG     1      -9.607   7.152  71.504  1.00  0.00     0.047 H 
HETATM   29  H   LIG     1     -10.954   6.103  71.911  1.00  0.00     0.047 H 
BRANCH  27  30
HETATM   30  C   LIG     1     -10.558   6.215  69.817  1.00  0.00    -0.054 A 
HETATM   31  C   LIG     1     -11.201   6.810  68.720  1.00  0.00    -0.075 A 
HETATM   32  C   LIG     1     -11.077   6.276  67.433  1.00  0.00    -0.060 A 
HETATM   33  H   LIG     1     -11.799   7.712  68.871  1.00  0.00     0.084 H 
HETATM   34  C   LIG     1     -10.290   5.139  67.238  1.00  0.00     0.074 A 
HETATM   35  H   LIG     1     -11.603   6.767  66.615  1.00  0.00     0.085 H 
HETATM   36  C   LIG     1      -9.660   4.515  68.323  1.00  0.00    -0.060 A 
HETATM   37  C   LIG     1      -9.796   5.055  69.607  1.00  0.00    -0.075 A 
HETATM   38  H   LIG     1      -9.065   3.616  68.177  1.00  0.00     0.085 H 
HETATM   39  H   LIG     1      -9.278   4.579  70.439  1.00  0.00     0.084 H 
BRANCH  34  40
HETATM   40  S   LIG     1     -10.067   4.435  65.614  1.00  0.00     0.239 S 
HETATM   41  O   LIG     1      -9.680   3.037  65.769  1.00  0.00    -0.206 OA
HETATM   42  O   LIG     1      -9.276   5.361  64.859  1.00  0.00    -0.206 OA
BRANCH  40  43
HETATM   43  N   LIG     1     -11.649   4.497  64.997  1.00  0.00    -0.225 NA
HETATM   44  H   LIG     1     -12.088   3.594  64.810  1.00  0.00     0.136 HD
HETATM   45  H   LIG     1     -12.282   5.150  65.473  1.00  0.00     0.136 HD
ENDBRANCH  40  43
ENDBRANCH  34  40
ENDBRANCH  27  30
ENDBRANCH  23  27
ENDBRANCH  13  17
ENDBRANCH   1  11
BRANCH   3  46
HETATM   46  C   LIG     1     -11.000  12.836  63.910  1.00  0.00    -0.036 C 
HETATM   47  H   LIG     1      -9.965  13.198  63.846  1.00  0.00     0.037 H 
HETATM   48  H   LIG     1     -11.403  12.882  62.889  1.00  0.00     0.037 H 
BRANCH  46  49
HETATM   49  C   LIG     1     -10.995  11.372  64.372  1.00  0.00    -0.004 C 
HETATM   50  H   LIG     1     -11.211  10.705  63.532  1.00  0.00     0.064 H 
HETATM   51  H   LIG     1     -11.750  11.208  65.149  1.00  0.00     0.064 H 
BRANCH  49  52
HETATM   52  N   LIG     1      -9.694  10.954  64.889  1.00  0.00    -0.361 N 
HETATM   53  C   LIG     1      -9.518   9.879  65.727  1.00  0.00     0.221 C 
HETATM   54  O   LIG     1     -10.460   9.199  66.132  1.00  0.00    -0.273 OA
HETATM   55  H   LIG     1      -8.878  11.418  64.498  1.00  0.00     0.162 HD
BRANCH  53  56
HETATM   56  C   LIG     1      -8.061   9.656  66.201  1.00  0.00     0.024 C 
HETATM   57  C   LIG     1      -7.304  10.969  66.467  1.00  0.00    -0.051 C 
HETATM   58  C   LIG     1      -7.721  11.674  67.764  1.00  0.00    -0.040 C 
HETATM   59  H   LIG     1      -7.426  11.662  65.626  1.00  0.00     0.034 H 
HETATM   60  H   LIG     1      -6.231  10.745  66.525  1.00  0.00     0.034 H 
HETATM   61  C   LIG     1      -7.812  10.763  68.987  1.00  0.00     0.035 C 
HETATM   62  H   LIG     1      -8.694  12.153  67.603  1.00  0.00     0.036 H 
HETATM   63  H   LIG     1      -6.999  12.478  67.963  1.00  0.00     0.036 H 
HETATM   64  C   LIG     1      -8.474   9.408  68.690  1.00  0.00    -0.040 C 
HETATM   65  H   LIG     1      -8.395  11.269  69.763  1.00  0.00     0.082 H 
HETATM   66  C   LIG     1      -7.921   8.749  67.429  1.00  0.00    -0.051 C 
HETATM   67  H   LIG     1      -9.555   9.551  68.575  1.00  0.00     0.036 H 
HETATM   68  H   LIG     1      -8.319   8.731  69.535  1.00  0.00     0.036 H 
HETATM   69  H   LIG     1      -8.411   7.784  67.278  1.00  0.00     0.034 H 
HETATM   70  H   LIG     1      -6.857   8.522  67.578  1.00  0.00     0.034 H 
HETATM   71  H   LIG     1      -7.564   9.163  65.354  1.00  0.00     0.054 H 
BRANCH  61  72
HETATM   72  O   LIG     1      -6.514  10.565  69.536  1.00  0.00    -0.396 OA
HETATM   73  H   LIG     1      -5.978  10.054  68.914  1.00  0.00     0.210 HD
ENDBRANCH  61  72
ENDBRANCH  53  56
ENDBRANCH  49  52
ENDBRANCH  46  49
ENDBRANCH   3  46
TORSDOF 11
ENDMDL
