MODEL 1
REMARK minimizedAffinity -8.56243896
REMARK minimizedRMSD -1
REMARK  13 active torsions:
REMARK  status: ('A' for Active; 'I' for Inactive)
REMARK    1  A    between atoms: N_1  and  S_2 
REMARK    2  A    between atoms: S_2  and  C_5 
REMARK    3  A    between atoms: C_8  and  C_9 
REMARK    4  A    between atoms: C_9  and  C_10 
REMARK    5  A    between atoms: C_14  and  N_15 
REMARK       I    between atoms: N_15  and  C_16 
REMARK    6  A    between atoms: C_16  and  C_18 
REMARK    7  A    between atoms: C_18  and  S_19 
REMARK    8  A    between atoms: C_18  and  C_20 
REMARK    9  A    between atoms: C_25  and  C_26 
REMARK   10  A    between atoms: C_26  and  C_27 
REMARK   11  A    between atoms: C_27  and  N_28 
REMARK       I    between atoms: N_28  and  C_29 
REMARK   12  A    between atoms: C_29  and  C_31 
REMARK   13  A    between atoms: C_35  and  O_37 
ROOT
HETATM    1  C   LIG     1     -16.125 -20.530  -2.592  1.00  0.00    -0.012 A 
HETATM    2  C   LIG     1     -17.477 -20.285  -2.872  1.00  0.00     0.010 A 
HETATM    3  N   LIG     1     -17.962 -19.743  -4.015  1.00  0.00    -0.272 NA
HETATM    4  C   LIG     1     -17.063 -19.387  -4.944  1.00  0.00     0.002 A 
HETATM    5  C   LIG     1     -15.700 -19.530  -4.769  1.00  0.00    -0.059 A 
HETATM    6  C   LIG     1     -15.205 -20.101  -3.579  1.00  0.00    -0.046 A 
HETATM    7  H   LIG     1     -18.263 -20.534  -2.160  1.00  0.00     0.115 H 
HETATM    8  H   LIG     1     -17.474 -18.960  -5.854  1.00  0.00     0.114 H 
HETATM    9  H   LIG     1     -15.031 -19.194  -5.558  1.00  0.00     0.086 H 
ENDROOT
BRANCH   1  10
HETATM   10  C   LIG     1     -15.721 -21.217  -1.289  1.00  0.00     0.093 C 
HETATM   11  H   LIG     1     -16.481 -21.017  -0.529  1.00  0.00     0.078 H 
BRANCH  10  12
HETATM   12  C   LIG     1     -15.481 -22.733  -1.402  1.00  0.00     0.240 C 
HETATM   13  N   LIG     1     -15.731 -23.431  -0.221  1.00  0.00    -0.326 N 
HETATM   14  H   LIG     1     -16.478 -23.075   0.364  1.00  0.00     0.169 HD
HETATM   15  O   LIG     1     -15.036 -23.248  -2.427  1.00  0.00    -0.272 OA
BRANCH  13  16
HETATM   16  C   LIG     1     -15.490 -24.818  -0.128  1.00  0.00     0.035 A 
HETATM   17  C   LIG     1     -16.189 -25.742  -0.902  1.00  0.00    -0.057 A 
HETATM   18  C   LIG     1     -15.859 -27.101  -0.837  1.00  0.00    -0.080 A 
HETATM   19  H   LIG     1     -16.967 -25.415  -1.583  1.00  0.00     0.086 H 
HETATM   20  C   LIG     1     -14.878 -27.547   0.049  1.00  0.00    -0.076 A 
HETATM   21  H   LIG     1     -16.378 -27.817  -1.468  1.00  0.00     0.083 H 
HETATM   22  C   LIG     1     -14.228 -26.633   0.880  1.00  0.00    -0.052 A 
HETATM   23  H   LIG     1     -14.643 -28.608   0.103  1.00  0.00     0.084 H 
HETATM   24  C   LIG     1     -14.505 -25.267   0.741  1.00  0.00    -0.051 A 
HETATM   25  H   LIG     1     -13.989 -24.565   1.381  1.00  0.00     0.087 H 
BRANCH  22  26
HETATM   26  C   LIG     1     -13.237 -27.084   1.921  1.00  0.00    -0.017 C 
HETATM   27  H   LIG     1     -13.658 -26.946   2.926  1.00  0.00     0.047 H 
HETATM   28  H   LIG     1     -13.089 -28.167   1.822  1.00  0.00     0.047 H 
BRANCH  26  29
HETATM   29  C   LIG     1     -11.919 -26.359   1.834  1.00  0.00    -0.054 A 
HETATM   30  C   LIG     1     -11.207 -26.030   2.998  1.00  0.00    -0.075 A 
HETATM   31  C   LIG     1      -9.993 -25.359   2.920  1.00  0.00    -0.060 A 
HETATM   32  H   LIG     1     -11.614 -26.283   3.973  1.00  0.00     0.084 H 
HETATM   33  C   LIG     1      -9.491 -25.008   1.671  1.00  0.00     0.074 A 
HETATM   34  H   LIG     1      -9.456 -25.108   3.834  1.00  0.00     0.085 H 
HETATM   35  C   LIG     1     -10.179 -25.325   0.497  1.00  0.00    -0.060 A 
HETATM   36  C   LIG     1     -11.399 -26.002   0.586  1.00  0.00    -0.075 A 
HETATM   37  H   LIG     1      -9.793 -25.048  -0.475  1.00  0.00     0.085 H 
HETATM   38  H   LIG     1     -11.943 -26.242  -0.326  1.00  0.00     0.084 H 
BRANCH  33  39
HETATM   39  S   LIG     1      -7.934 -24.187   1.547  1.00  0.00     0.239 S 
HETATM   40  O   LIG     1      -8.070 -23.018   0.738  1.00  0.00    -0.206 OA
HETATM   41  O   LIG     1      -6.899 -25.184   1.314  1.00  0.00    -0.206 OA
BRANCH  39  42
HETATM   42  N   LIG     1      -7.708 -23.656   3.122  1.00  0.00    -0.225 NA
HETATM   43  H   LIG     1      -7.687 -22.636   3.139  1.00  0.00     0.136 HD
HETATM   44  H   LIG     1      -6.891 -24.100   3.534  1.00  0.00     0.136 HD
ENDBRANCH  39  42
ENDBRANCH  33  39
ENDBRANCH  26  29
ENDBRANCH  22  26
ENDBRANCH  13  16
ENDBRANCH  10  12
BRANCH  10  45
HETATM   45  S   LIG     1     -14.170 -20.527  -0.548  1.00  0.00    -0.163 SA
HETATM   46  H   LIG     1     -13.329 -21.297  -1.266  1.00  0.00     0.102 HD
ENDBRANCH  10  45
ENDBRANCH   1  10
BRANCH   6  47
HETATM   47  C   LIG     1     -13.699 -20.156  -3.433  1.00  0.00    -0.026 C 
HETATM   48  H   LIG     1     -13.447 -20.342  -2.379  1.00  0.00     0.042 H 
HETATM   49  H   LIG     1     -13.242 -19.187  -3.653  1.00  0.00     0.042 H 
BRANCH  47  50
HETATM   50  C   LIG     1     -13.090 -21.268  -4.294  1.00  0.00    -0.001 C 
HETATM   51  H   LIG     1     -12.289 -20.872  -4.925  1.00  0.00     0.064 H 
HETATM   52  H   LIG     1     -13.850 -21.699  -4.957  1.00  0.00     0.064 H 
BRANCH  50  53
HETATM   53  N   LIG     1     -12.600 -22.367  -3.477  1.00  0.00    -0.360 N 
HETATM   54  C   LIG     1     -12.188 -23.567  -4.008  1.00  0.00     0.221 C 
HETATM   55  O   LIG     1     -12.176 -23.779  -5.214  1.00  0.00    -0.273 OA
HETATM   56  H   LIG     1     -12.746 -22.309  -2.478  1.00  0.00     0.162 HD
BRANCH  54  57
HETATM   57  C   LIG     1     -11.783 -24.622  -2.975  1.00  0.00     0.024 C 
HETATM   58  H   LIG     1     -11.688 -24.061  -2.034  1.00  0.00     0.054 H 
HETATM   59  C   LIG     1     -12.891 -25.667  -2.755  1.00  0.00    -0.051 C 
HETATM   60  C   LIG     1     -12.902 -26.820  -3.758  1.00  0.00    -0.040 C 
HETATM   61  H   LIG     1     -13.879 -25.187  -2.774  1.00  0.00     0.034 H 
HETATM   62  H   LIG     1     -12.782 -26.085  -1.747  1.00  0.00     0.034 H 
HETATM   63  C   LIG     1     -11.536 -27.445  -3.993  1.00  0.00     0.035 C 
HETATM   64  H   LIG     1     -13.291 -26.467  -4.717  1.00  0.00     0.036 H 
HETATM   65  H   LIG     1     -13.597 -27.583  -3.384  1.00  0.00     0.036 H 
HETATM   66  H   LIG     1     -11.596 -28.134  -4.845  1.00  0.00     0.082 H 
HETATM   67  C   LIG     1     -10.466 -26.401  -4.287  1.00  0.00    -0.040 C 
HETATM   68  C   LIG     1     -10.417 -25.248  -3.288  1.00  0.00    -0.051 C 
HETATM   69  H   LIG     1     -10.637 -25.989  -5.287  1.00  0.00     0.036 H 
HETATM   70  H   LIG     1      -9.479 -26.880  -4.295  1.00  0.00     0.036 H 
HETATM   71  H   LIG     1      -9.722 -24.502  -3.691  1.00  0.00     0.034 H 
HETATM   72  H   LIG     1      -9.962 -25.590  -2.350  1.00  0.00     0.034 H 
BRANCH  63  73
HETATM   73  O   LIG     1     -11.156 -28.212  -2.858  1.00  0.00    -0.396 OA
HETATM   74  H   LIG     1     -11.842 -28.892  -2.725  1.00  0.00     0.210 HD
ENDBRANCH  63  73
ENDBRANCH  54  57
ENDBRANCH  50  53
ENDBRANCH  47  50
ENDBRANCH   6  47
TORSDOF 13
ENDMDL
MODEL 2
REMARK minimizedAffinity -7.91984653
REMARK minimizedRMSD -1
REMARK  13 active torsions:
REMARK  status: ('A' for Active; 'I' for Inactive)
REMARK    1  A    between atoms: N_1  and  S_2 
REMARK    2  A    between atoms: S_2  and  C_5 
REMARK    3  A    between atoms: C_8  and  C_9 
REMARK    4  A    between atoms: C_9  and  C_10 
REMARK    5  A    between atoms: C_14  and  N_15 
REMARK       I    between atoms: N_15  and  C_16 
REMARK    6  A    between atoms: C_16  and  C_18 
REMARK    7  A    between atoms: C_18  and  S_19 
REMARK    8  A    between atoms: C_18  and  C_20 
REMARK    9  A    between atoms: C_25  and  C_26 
REMARK   10  A    between atoms: C_26  and  C_27 
REMARK   11  A    between atoms: C_27  and  N_28 
REMARK       I    between atoms: N_28  and  C_29 
REMARK   12  A    between atoms: C_29  and  C_31 
REMARK   13  A    between atoms: C_35  and  O_37 
ROOT
HETATM    1  C   LIG     1     -13.015 -27.364   1.293  1.00  0.00    -0.012 A 
HETATM    2  C   LIG     1     -14.084 -26.492   1.544  1.00  0.00     0.010 A 
HETATM    3  N   LIG     1     -15.354 -26.653   1.102  1.00  0.00    -0.272 NA
HETATM    4  C   LIG     1     -15.597 -27.726   0.336  1.00  0.00     0.002 A 
HETATM    5  C   LIG     1     -14.619 -28.633  -0.023  1.00  0.00    -0.059 A 
HETATM    6  C   LIG     1     -13.301 -28.461   0.446  1.00  0.00    -0.046 A 
HETATM    7  H   LIG     1     -13.960 -25.593   2.146  1.00  0.00     0.115 H 
HETATM    8  H   LIG     1     -16.623 -27.838  -0.002  1.00  0.00     0.114 H 
HETATM    9  H   LIG     1     -14.886 -29.466  -0.669  1.00  0.00     0.086 H 
ENDROOT
BRANCH   1  10
HETATM   10  C   LIG     1     -11.644 -27.101   1.917  1.00  0.00     0.093 C 
HETATM   11  H   LIG     1     -10.996 -27.961   1.729  1.00  0.00     0.078 H 
BRANCH  10  12
HETATM   12  C   LIG     1     -10.952 -25.811   1.441  1.00  0.00     0.240 C 
HETATM   13  N   LIG     1      -9.563 -25.910   1.374  1.00  0.00    -0.326 N 
HETATM   14  H   LIG     1      -9.187 -26.816   1.116  1.00  0.00     0.169 HD
HETATM   15  O   LIG     1     -11.581 -24.776   1.220  1.00  0.00    -0.272 OA
BRANCH  13  16
HETATM   16  C   LIG     1      -8.767 -24.798   1.029  1.00  0.00     0.035 A 
HETATM   17  C   LIG     1      -7.723 -24.358   1.839  1.00  0.00    -0.057 A 
HETATM   18  C   LIG     1      -6.906 -23.303   1.417  1.00  0.00    -0.080 A 
HETATM   19  H   LIG     1      -7.513 -24.849   2.784  1.00  0.00     0.086 H 
HETATM   20  C   LIG     1      -7.171 -22.642   0.218  1.00  0.00    -0.076 A 
HETATM   21  H   LIG     1      -6.069 -22.983   2.033  1.00  0.00     0.083 H 
HETATM   22  C   LIG     1      -8.263 -23.031  -0.561  1.00  0.00    -0.052 A 
HETATM   23  H   LIG     1      -6.541 -21.811  -0.091  1.00  0.00     0.084 H 
HETATM   24  C   LIG     1      -9.016 -24.146  -0.171  1.00  0.00    -0.051 A 
HETATM   25  H   LIG     1      -9.853 -24.447  -0.786  1.00  0.00     0.087 H 
BRANCH  22  26
HETATM   26  C   LIG     1      -8.645 -22.281  -1.810  1.00  0.00    -0.017 C 
HETATM   27  H   LIG     1      -7.997 -21.402  -1.934  1.00  0.00     0.047 H 
HETATM   28  H   LIG     1      -8.434 -22.914  -2.681  1.00  0.00     0.047 H 
BRANCH  26  29
HETATM   29  C   LIG     1     -10.085 -21.837  -1.814  1.00  0.00    -0.054 A 
HETATM   30  C   LIG     1     -10.721 -21.468  -0.619  1.00  0.00    -0.075 A 
HETATM   31  C   LIG     1     -12.050 -21.061  -0.619  1.00  0.00    -0.060 A 
HETATM   32  H   LIG     1     -10.179 -21.515   0.322  1.00  0.00     0.084 H 
HETATM   33  C   LIG     1     -12.750 -21.031  -1.820  1.00  0.00     0.074 A 
HETATM   34  H   LIG     1     -12.528 -20.781   0.319  1.00  0.00     0.085 H 
HETATM   35  C   LIG     1     -12.139 -21.394  -3.025  1.00  0.00    -0.060 A 
HETATM   36  C   LIG     1     -10.801 -21.799  -3.014  1.00  0.00    -0.075 A 
HETATM   37  H   LIG     1     -12.683 -21.376  -3.959  1.00  0.00     0.085 H 
HETATM   38  H   LIG     1     -10.326 -22.091  -3.948  1.00  0.00     0.084 H 
BRANCH  33  39
HETATM   39  S   LIG     1     -14.427 -20.485  -1.850  1.00  0.00     0.239 S 
HETATM   40  O   LIG     1     -15.203 -21.358  -2.672  1.00  0.00    -0.206 OA
HETATM   41  O   LIG     1     -14.443 -19.038  -2.013  1.00  0.00    -0.206 OA
BRANCH  39  42
HETATM   42  N   LIG     1     -14.901 -20.771  -0.267  1.00  0.00    -0.225 NA
HETATM   43  H   LIG     1     -15.645 -21.468  -0.253  1.00  0.00     0.136 HD
HETATM   44  H   LIG     1     -15.135 -19.896   0.199  1.00  0.00     0.136 HD
ENDBRANCH  39  42
ENDBRANCH  33  39
ENDBRANCH  26  29
ENDBRANCH  22  26
ENDBRANCH  13  16
ENDBRANCH  10  12
BRANCH  10  45
HETATM   45  S   LIG     1     -11.690 -26.982   3.765  1.00  0.00    -0.163 SA
HETATM   46  H   LIG     1     -12.008 -25.674   3.803  1.00  0.00     0.102 HD
ENDBRANCH  10  45
ENDBRANCH   1  10
BRANCH   6  47
HETATM   47  C   LIG     1     -12.273 -29.456  -0.052  1.00  0.00    -0.026 C 
HETATM   48  H   LIG     1     -12.410 -30.410   0.478  1.00  0.00     0.042 H 
HETATM   49  H   LIG     1     -11.258 -29.145   0.211  1.00  0.00     0.042 H 
BRANCH  47  50
HETATM   50  C   LIG     1     -12.410 -29.701  -1.558  1.00  0.00    -0.001 C 
HETATM   51  H   LIG     1     -13.192 -30.439  -1.758  1.00  0.00     0.064 H 
HETATM   52  H   LIG     1     -11.472 -30.094  -1.969  1.00  0.00     0.064 H 
BRANCH  50  53
HETATM   53  N   LIG     1     -12.677 -28.466  -2.278  1.00  0.00    -0.360 N 
HETATM   54  C   LIG     1     -11.871 -28.002  -3.291  1.00  0.00     0.221 C 
HETATM   55  O   LIG     1     -10.886 -28.617  -3.677  1.00  0.00    -0.273 OA
HETATM   56  H   LIG     1     -13.372 -27.840  -1.892  1.00  0.00     0.162 HD
BRANCH  54  57
HETATM   57  C   LIG     1     -12.281 -26.643  -3.867  1.00  0.00     0.024 C 
HETATM   58  H   LIG     1     -11.765 -26.590  -4.837  1.00  0.00     0.054 H 
HETATM   59  C   LIG     1     -13.789 -26.576  -4.165  1.00  0.00    -0.051 C 
HETATM   60  C   LIG     1     -14.669 -26.206  -2.971  1.00  0.00    -0.040 C 
HETATM   61  H   LIG     1     -14.143 -27.535  -4.567  1.00  0.00     0.034 H 
HETATM   62  H   LIG     1     -13.956 -25.839  -4.960  1.00  0.00     0.034 H 
HETATM   63  C   LIG     1     -14.166 -25.007  -2.183  1.00  0.00     0.035 C 
HETATM   64  H   LIG     1     -14.742 -27.061  -2.292  1.00  0.00     0.036 H 
HETATM   65  H   LIG     1     -15.679 -26.002  -3.350  1.00  0.00     0.036 H 
HETATM   66  H   LIG     1     -14.742 -24.919  -1.253  1.00  0.00     0.082 H 
HETATM   67  C   LIG     1     -12.689 -25.127  -1.829  1.00  0.00    -0.040 C 
HETATM   68  C   LIG     1     -11.783 -25.474  -3.008  1.00  0.00    -0.051 C 
HETATM   69  H   LIG     1     -12.570 -25.897  -1.059  1.00  0.00     0.036 H 
HETATM   70  H   LIG     1     -12.337 -24.180  -1.401  1.00  0.00     0.036 H 
HETATM   71  H   LIG     1     -10.786 -25.678  -2.598  1.00  0.00     0.034 H 
HETATM   72  H   LIG     1     -11.656 -24.593  -3.648  1.00  0.00     0.034 H 
BRANCH  63  73
HETATM   73  O   LIG     1     -14.383 -23.816  -2.928  1.00  0.00    -0.396 OA
HETATM   74  H   LIG     1     -15.341 -23.754  -3.101  1.00  0.00     0.210 HD
ENDBRANCH  63  73
ENDBRANCH  54  57
ENDBRANCH  50  53
ENDBRANCH  47  50
ENDBRANCH   6  47
TORSDOF 13
ENDMDL
MODEL 3
REMARK minimizedAffinity -7.27562428
REMARK minimizedRMSD -1
REMARK  13 active torsions:
REMARK  status: ('A' for Active; 'I' for Inactive)
REMARK    1  A    between atoms: N_1  and  S_2 
REMARK    2  A    between atoms: S_2  and  C_5 
REMARK    3  A    between atoms: C_8  and  C_9 
REMARK    4  A    between atoms: C_9  and  C_10 
REMARK    5  A    between atoms: C_14  and  N_15 
REMARK       I    between atoms: N_15  and  C_16 
REMARK    6  A    between atoms: C_16  and  C_18 
REMARK    7  A    between atoms: C_18  and  S_19 
REMARK    8  A    between atoms: C_18  and  C_20 
REMARK    9  A    between atoms: C_25  and  C_26 
REMARK   10  A    between atoms: C_26  and  C_27 
REMARK   11  A    between atoms: C_27  and  N_28 
REMARK       I    between atoms: N_28  and  C_29 
REMARK   12  A    between atoms: C_29  and  C_31 
REMARK   13  A    between atoms: C_35  and  O_37 
ROOT
HETATM    1  C   LIG     1     -11.824 -24.377  -0.763  1.00  0.00    -0.012 A 
HETATM    2  C   LIG     1     -12.639 -23.562   0.034  1.00  0.00     0.010 A 
HETATM    3  N   LIG     1     -13.678 -22.812  -0.408  1.00  0.00    -0.272 NA
HETATM    4  C   LIG     1     -13.923 -22.835  -1.726  1.00  0.00     0.002 A 
HETATM    5  C   LIG     1     -13.162 -23.559  -2.623  1.00  0.00    -0.059 A 
HETATM    6  C   LIG     1     -12.087 -24.341  -2.153  1.00  0.00    -0.046 A 
HETATM    7  H   LIG     1     -12.492 -23.481   1.109  1.00  0.00     0.115 H 
HETATM    8  H   LIG     1     -14.763 -22.231  -2.056  1.00  0.00     0.114 H 
HETATM    9  H   LIG     1     -13.406 -23.507  -3.681  1.00  0.00     0.086 H 
ENDROOT
BRANCH   1  10
HETATM   10  C   LIG     1     -10.729 -25.231  -0.123  1.00  0.00     0.093 C 
HETATM   11  H   LIG     1     -10.564 -26.119  -0.739  1.00  0.00     0.078 H 
BRANCH  10  12
HETATM   12  C   LIG     1      -9.394 -24.503   0.114  1.00  0.00     0.240 C 
HETATM   13  N   LIG     1      -8.608 -25.082   1.110  1.00  0.00    -0.326 N 
HETATM   14  H   LIG     1      -8.661 -26.090   1.198  1.00  0.00     0.169 HD
HETATM   15  O   LIG     1      -9.104 -23.464  -0.477  1.00  0.00    -0.272 OA
BRANCH  13  16
HETATM   16  C   LIG     1      -7.386 -24.499   1.507  1.00  0.00     0.035 A 
HETATM   17  C   LIG     1      -7.328 -23.486   2.462  1.00  0.00    -0.057 A 
HETATM   18  C   LIG     1      -6.089 -22.995   2.887  1.00  0.00    -0.080 A 
HETATM   19  H   LIG     1      -8.237 -23.095   2.908  1.00  0.00     0.086 H 
HETATM   20  C   LIG     1      -4.908 -23.466   2.311  1.00  0.00    -0.076 A 
HETATM   21  H   LIG     1      -6.042 -22.231   3.659  1.00  0.00     0.083 H 
HETATM   22  C   LIG     1      -4.967 -24.427   1.300  1.00  0.00    -0.052 A 
HETATM   23  H   LIG     1      -3.952 -23.063   2.636  1.00  0.00     0.084 H 
HETATM   24  C   LIG     1      -6.208 -24.973   0.949  1.00  0.00    -0.051 A 
HETATM   25  H   LIG     1      -6.242 -25.725   0.172  1.00  0.00     0.087 H 
BRANCH  22  26
HETATM   26  C   LIG     1      -3.726 -24.888   0.582  1.00  0.00    -0.017 C 
HETATM   27  H   LIG     1      -3.899 -24.895  -0.503  1.00  0.00     0.047 H 
HETATM   28  H   LIG     1      -2.931 -24.146   0.737  1.00  0.00     0.047 H 
BRANCH  26  29
HETATM   29  C   LIG     1      -3.266 -26.255   1.017  1.00  0.00    -0.054 A 
HETATM   30  C   LIG     1      -1.981 -26.439   1.551  1.00  0.00    -0.075 A 
HETATM   31  C   LIG     1      -1.553 -27.700   1.952  1.00  0.00    -0.060 A 
HETATM   32  H   LIG     1      -1.304 -25.595   1.640  1.00  0.00     0.084 H 
HETATM   33  C   LIG     1      -2.412 -28.784   1.808  1.00  0.00     0.074 A 
HETATM   34  H   LIG     1      -0.552 -27.824   2.361  1.00  0.00     0.085 H 
HETATM   35  C   LIG     1      -3.697 -28.627   1.280  1.00  0.00    -0.060 A 
HETATM   36  C   LIG     1      -4.119 -27.355   0.883  1.00  0.00    -0.075 A 
HETATM   37  H   LIG     1      -4.364 -29.471   1.162  1.00  0.00     0.085 H 
HETATM   38  H   LIG     1      -5.114 -27.231   0.461  1.00  0.00     0.084 H 
BRANCH  33  39
HETATM   39  S   LIG     1      -1.904 -30.387   2.342  1.00  0.00     0.239 S 
HETATM   40  O   LIG     1      -1.414 -30.315   3.681  1.00  0.00    -0.206 OA
HETATM   41  O   LIG     1      -1.151 -31.019   1.267  1.00  0.00    -0.206 OA
BRANCH  39  42
HETATM   42  N   LIG     1      -3.369 -31.199   2.411  1.00  0.00    -0.225 NA
HETATM   43  H   LIG     1      -3.560 -31.480   3.373  1.00  0.00     0.136 HD
HETATM   44  H   LIG     1      -3.386 -31.962   1.738  1.00  0.00     0.136 HD
ENDBRANCH  39  42
ENDBRANCH  33  39
ENDBRANCH  26  29
ENDBRANCH  22  26
ENDBRANCH  13  16
ENDBRANCH  10  12
BRANCH  10  45
HETATM   45  S   LIG     1     -11.211 -25.926   1.525  1.00  0.00    -0.163 SA
HETATM   46  H   LIG     1     -10.843 -24.842   2.235  1.00  0.00     0.102 HD
ENDBRANCH  10  45
ENDBRANCH   1  10
BRANCH   6  47
HETATM   47  C   LIG     1     -11.257 -25.046  -3.206  1.00  0.00    -0.026 C 
HETATM   48  H   LIG     1     -10.480 -25.646  -2.708  1.00  0.00     0.042 H 
HETATM   49  H   LIG     1     -10.697 -24.332  -3.815  1.00  0.00     0.042 H 
BRANCH  47  50
HETATM   50  C   LIG     1     -12.116 -25.970  -4.075  1.00  0.00    -0.001 C 
HETATM   51  H   LIG     1     -11.506 -26.771  -4.504  1.00  0.00     0.064 H 
HETATM   52  H   LIG     1     -12.559 -25.411  -4.908  1.00  0.00     0.064 H 
BRANCH  50  53
HETATM   53  N   LIG     1     -13.231 -26.524  -3.326  1.00  0.00    -0.360 N 
HETATM   54  C   LIG     1     -13.227 -27.800  -2.811  1.00  0.00     0.221 C 
HETATM   55  O   LIG     1     -12.264 -28.547  -2.924  1.00  0.00    -0.273 OA
HETATM   56  H   LIG     1     -14.108 -26.019  -3.348  1.00  0.00     0.162 HD
BRANCH  54  57
HETATM   57  C   LIG     1     -14.529 -28.221  -2.123  1.00  0.00     0.024 C 
HETATM   58  H   LIG     1     -15.065 -28.804  -2.885  1.00  0.00     0.054 H 
HETATM   59  C   LIG     1     -14.273 -29.171  -0.940  1.00  0.00    -0.051 C 
HETATM   60  C   LIG     1     -13.932 -28.482   0.381  1.00  0.00    -0.040 C 
HETATM   61  H   LIG     1     -13.462 -29.872  -1.179  1.00  0.00     0.034 H 
HETATM   62  H   LIG     1     -15.167 -29.788  -0.788  1.00  0.00     0.034 H 
HETATM   63  C   LIG     1     -14.861 -27.332   0.735  1.00  0.00     0.035 C 
HETATM   64  H   LIG     1     -12.907 -28.100   0.341  1.00  0.00     0.036 H 
HETATM   65  H   LIG     1     -13.967 -29.241   1.174  1.00  0.00     0.036 H 
HETATM   66  H   LIG     1     -14.448 -26.784   1.591  1.00  0.00     0.082 H 
HETATM   67  C   LIG     1     -15.041 -26.358  -0.423  1.00  0.00    -0.040 C 
HETATM   68  C   LIG     1     -15.404 -27.017  -1.752  1.00  0.00    -0.051 C 
HETATM   69  H   LIG     1     -14.113 -25.791  -0.557  1.00  0.00     0.036 H 
HETATM   70  H   LIG     1     -15.832 -25.638  -0.177  1.00  0.00     0.036 H 
HETATM   71  H   LIG     1     -15.354 -26.237  -2.522  1.00  0.00     0.034 H 
HETATM   72  H   LIG     1     -16.454 -27.336  -1.732  1.00  0.00     0.034 H 
BRANCH  63  73
HETATM   73  O   LIG     1     -16.128 -27.841   1.132  1.00  0.00    -0.396 OA
HETATM   74  H   LIG     1     -15.978 -28.426   1.897  1.00  0.00     0.210 HD
ENDBRANCH  63  73
ENDBRANCH  54  57
ENDBRANCH  50  53
ENDBRANCH  47  50
ENDBRANCH   6  47
TORSDOF 13
ENDMDL
MODEL 4
REMARK minimizedAffinity -6.86443377
REMARK minimizedRMSD -1
REMARK  13 active torsions:
REMARK  status: ('A' for Active; 'I' for Inactive)
REMARK    1  A    between atoms: N_1  and  S_2 
REMARK    2  A    between atoms: S_2  and  C_5 
REMARK    3  A    between atoms: C_8  and  C_9 
REMARK    4  A    between atoms: C_9  and  C_10 
REMARK    5  A    between atoms: C_14  and  N_15 
REMARK       I    between atoms: N_15  and  C_16 
REMARK    6  A    between atoms: C_16  and  C_18 
REMARK    7  A    between atoms: C_18  and  S_19 
REMARK    8  A    between atoms: C_18  and  C_20 
REMARK    9  A    between atoms: C_25  and  C_26 
REMARK   10  A    between atoms: C_26  and  C_27 
REMARK   11  A    between atoms: C_27  and  N_28 
REMARK       I    between atoms: N_28  and  C_29 
REMARK   12  A    between atoms: C_29  and  C_31 
REMARK   13  A    between atoms: C_35  and  O_37 
ROOT
HETATM    1  C   LIG     1     -12.008 -24.096  -1.002  1.00  0.00    -0.012 A 
HETATM    2  C   LIG     1     -12.675 -23.282  -0.076  1.00  0.00     0.010 A 
HETATM    3  N   LIG     1     -13.689 -22.429  -0.361  1.00  0.00    -0.272 NA
HETATM    4  C   LIG     1     -14.063 -22.341  -1.645  1.00  0.00     0.002 A 
HETATM    5  C   LIG     1     -13.453 -23.054  -2.660  1.00  0.00    -0.059 A 
HETATM    6  C   LIG     1     -12.403 -23.943  -2.353  1.00  0.00    -0.046 A 
HETATM    7  H   LIG     1     -12.417 -23.288   0.981  1.00  0.00     0.115 H 
HETATM    8  H   LIG     1     -14.880 -21.656  -1.850  1.00  0.00     0.114 H 
HETATM    9  H   LIG     1     -13.794 -22.910  -3.682  1.00  0.00     0.086 H 
ENDROOT
BRANCH   1  10
HETATM   10  C   LIG     1     -10.928 -25.071  -0.533  1.00  0.00     0.093 C 
HETATM   11  H   LIG     1     -10.752 -25.812  -1.317  1.00  0.00     0.078 H 
BRANCH  10  12
HETATM   12  C   LIG     1      -9.597 -24.415  -0.124  1.00  0.00     0.240 C 
HETATM   13  N   LIG     1      -9.307 -23.246  -0.827  1.00  0.00    -0.326 N 
HETATM   14  H   LIG     1     -10.098 -22.671  -1.093  1.00  0.00     0.169 HD
HETATM   15  O   LIG     1      -8.839 -24.934   0.695  1.00  0.00    -0.272 OA
BRANCH  13  16
HETATM   16  C   LIG     1      -8.091 -22.559  -0.631  1.00  0.00     0.035 A 
HETATM   17  C   LIG     1      -6.922 -22.922  -1.295  1.00  0.00    -0.057 A 
HETATM   18  C   LIG     1      -5.759 -22.160  -1.133  1.00  0.00    -0.080 A 
HETATM   19  H   LIG     1      -6.910 -23.775  -1.965  1.00  0.00     0.086 H 
HETATM   20  C   LIG     1      -5.743 -21.074  -0.258  1.00  0.00    -0.076 A 
HETATM   21  H   LIG     1      -4.857 -22.422  -1.679  1.00  0.00     0.083 H 
HETATM   22  C   LIG     1      -6.893 -20.752   0.466  1.00  0.00    -0.052 A 
HETATM   23  H   LIG     1      -4.829 -20.500  -0.127  1.00  0.00     0.084 H 
HETATM   24  C   LIG     1      -8.073 -21.468   0.227  1.00  0.00    -0.051 A 
HETATM   25  H   LIG     1      -8.961 -21.204   0.785  1.00  0.00     0.087 H 
BRANCH  22  26
HETATM   26  C   LIG     1      -6.891 -19.652   1.496  1.00  0.00    -0.017 C 
HETATM   27  H   LIG     1      -6.000 -19.022   1.371  1.00  0.00     0.047 H 
HETATM   28  H   LIG     1      -7.740 -18.985   1.302  1.00  0.00     0.047 H 
BRANCH  26  29
HETATM   29  C   LIG     1      -6.935 -20.169   2.910  1.00  0.00    -0.054 A 
HETATM   30  C   LIG     1      -7.437 -19.368   3.948  1.00  0.00    -0.075 A 
HETATM   31  C   LIG     1      -7.477 -19.840   5.254  1.00  0.00    -0.060 A 
HETATM   32  H   LIG     1      -7.784 -18.360   3.736  1.00  0.00     0.084 H 
HETATM   33  C   LIG     1      -7.004 -21.120   5.526  1.00  0.00     0.074 A 
HETATM   34  H   LIG     1      -7.867 -19.203   6.046  1.00  0.00     0.085 H 
HETATM   35  C   LIG     1      -6.500 -21.939   4.511  1.00  0.00    -0.060 A 
HETATM   36  C   LIG     1      -6.467 -21.454   3.201  1.00  0.00    -0.075 A 
HETATM   37  H   LIG     1      -6.127 -22.932   4.723  1.00  0.00     0.085 H 
HETATM   38  H   LIG     1      -6.065 -22.085   2.410  1.00  0.00     0.084 H 
BRANCH  33  39
HETATM   39  S   LIG     1      -7.078 -21.754   7.171  1.00  0.00     0.239 S 
HETATM   40  O   LIG     1      -7.142 -20.672   8.101  1.00  0.00    -0.206 OA
HETATM   41  O   LIG     1      -6.113 -22.836   7.297  1.00  0.00    -0.206 OA
BRANCH  39  42
HETATM   42  N   LIG     1      -8.587 -22.485   7.182  1.00  0.00    -0.225 NA
HETATM   43  H   LIG     1      -9.189 -22.019   7.862  1.00  0.00     0.136 HD
HETATM   44  H   LIG     1      -8.495 -23.490   7.319  1.00  0.00     0.136 HD
ENDBRANCH  39  42
ENDBRANCH  33  39
ENDBRANCH  26  29
ENDBRANCH  22  26
ENDBRANCH  13  16
ENDBRANCH  10  12
BRANCH  10  45
HETATM   45  S   LIG     1     -11.444 -26.090   0.925  1.00  0.00    -0.163 SA
HETATM   46  H   LIG     1     -11.088 -25.180   1.852  1.00  0.00     0.102 HD
ENDBRANCH  10  45
ENDBRANCH   1  10
BRANCH   6  47
HETATM   47  C   LIG     1     -11.738 -24.631  -3.528  1.00  0.00    -0.026 C 
HETATM   48  H   LIG     1     -10.992 -25.346  -3.150  1.00  0.00     0.042 H 
HETATM   49  H   LIG     1     -11.156 -23.924  -4.125  1.00  0.00     0.042 H 
BRANCH  47  50
HETATM   50  C   LIG     1     -12.757 -25.386  -4.389  1.00  0.00    -0.001 C 
HETATM   51  H   LIG     1     -12.266 -26.185  -4.953  1.00  0.00     0.064 H 
HETATM   52  H   LIG     1     -13.223 -24.708  -5.114  1.00  0.00     0.064 H 
BRANCH  50  53
HETATM   53  N   LIG     1     -13.843 -25.921  -3.585  1.00  0.00    -0.360 N 
HETATM   54  C   LIG     1     -13.823 -27.189  -3.050  1.00  0.00     0.221 C 
HETATM   55  O   LIG     1     -12.868 -27.942  -3.190  1.00  0.00    -0.273 OA
HETATM   56  H   LIG     1     -14.717 -25.412  -3.579  1.00  0.00     0.162 HD
BRANCH  54  57
HETATM   57  C   LIG     1     -15.097 -27.591  -2.302  1.00  0.00     0.024 C 
HETATM   58  H   LIG     1     -15.788 -27.915  -3.094  1.00  0.00     0.054 H 
HETATM   59  C   LIG     1     -14.869 -28.810  -1.391  1.00  0.00    -0.051 C 
HETATM   60  C   LIG     1     -14.298 -28.488  -0.010  1.00  0.00    -0.040 C 
HETATM   61  H   LIG     1     -14.200 -29.533  -1.877  1.00  0.00     0.034 H 
HETATM   62  H   LIG     1     -15.825 -29.331  -1.258  1.00  0.00     0.034 H 
HETATM   63  C   LIG     1     -15.005 -27.343   0.698  1.00  0.00     0.035 C 
HETATM   64  H   LIG     1     -13.237 -28.236  -0.102  1.00  0.00     0.036 H 
HETATM   65  H   LIG     1     -14.366 -29.398   0.602  1.00  0.00     0.036 H 
HETATM   66  H   LIG     1     -14.431 -27.060   1.589  1.00  0.00     0.082 H 
HETATM   67  C   LIG     1     -15.153 -26.117  -0.194  1.00  0.00    -0.040 C 
HETATM   68  C   LIG     1     -15.742 -26.405  -1.573  1.00  0.00    -0.051 C 
HETATM   69  H   LIG     1     -14.169 -25.652  -0.325  1.00  0.00     0.036 H 
HETATM   70  H   LIG     1     -15.799 -25.380   0.300  1.00  0.00     0.036 H 
HETATM   71  H   LIG     1     -15.654 -25.483  -2.160  1.00  0.00     0.034 H 
HETATM   72  H   LIG     1     -16.820 -26.589  -1.484  1.00  0.00     0.034 H 
BRANCH  63  73
HETATM   73  O   LIG     1     -16.287 -27.769   1.140  1.00  0.00    -0.396 OA
HETATM   74  H   LIG     1     -16.150 -28.527   1.737  1.00  0.00     0.210 HD
ENDBRANCH  63  73
ENDBRANCH  54  57
ENDBRANCH  50  53
ENDBRANCH  47  50
ENDBRANCH   6  47
TORSDOF 13
ENDMDL
MODEL 5
REMARK minimizedAffinity -5.97896481
REMARK minimizedRMSD -1
REMARK  13 active torsions:
REMARK  status: ('A' for Active; 'I' for Inactive)
REMARK    1  A    between atoms: N_1  and  S_2 
REMARK    2  A    between atoms: S_2  and  C_5 
REMARK    3  A    between atoms: C_8  and  C_9 
REMARK    4  A    between atoms: C_9  and  C_10 
REMARK    5  A    between atoms: C_14  and  N_15 
REMARK       I    between atoms: N_15  and  C_16 
REMARK    6  A    between atoms: C_16  and  C_18 
REMARK    7  A    between atoms: C_18  and  S_19 
REMARK    8  A    between atoms: C_18  and  C_20 
REMARK    9  A    between atoms: C_25  and  C_26 
REMARK   10  A    between atoms: C_26  and  C_27 
REMARK   11  A    between atoms: C_27  and  N_28 
REMARK       I    between atoms: N_28  and  C_29 
REMARK   12  A    between atoms: C_29  and  C_31 
REMARK   13  A    between atoms: C_35  and  O_37 
ROOT
HETATM    1  C   LIG     1      -9.108 -22.199  -6.171  1.00  0.00    -0.012 A 
HETATM    2  C   LIG     1      -8.496 -22.132  -4.911  1.00  0.00     0.010 A 
HETATM    3  N   LIG     1      -7.643 -23.051  -4.398  1.00  0.00    -0.272 NA
HETATM    4  C   LIG     1      -7.389 -24.129  -5.153  1.00  0.00     0.002 A 
HETATM    5  C   LIG     1      -7.967 -24.337  -6.391  1.00  0.00    -0.059 A 
HETATM    6  C   LIG     1      -8.849 -23.372  -6.920  1.00  0.00    -0.046 A 
HETATM    7  H   LIG     1      -8.666 -21.294  -4.237  1.00  0.00     0.115 H 
HETATM    8  H   LIG     1      -6.699 -24.849  -4.724  1.00  0.00     0.114 H 
HETATM    9  H   LIG     1      -7.732 -25.249  -6.934  1.00  0.00     0.086 H 
ENDROOT
BRANCH   1  10
HETATM   10  C   LIG     1      -9.995 -21.054  -6.658  1.00  0.00     0.093 C 
HETATM   11  H   LIG     1      -9.976 -21.029  -7.751  1.00  0.00     0.078 H 
BRANCH  10  12
HETATM   12  C   LIG     1     -11.451 -21.103  -6.161  1.00  0.00     0.240 C 
HETATM   13  N   LIG     1     -11.692 -20.297  -5.049  1.00  0.00    -0.326 N 
HETATM   14  H   LIG     1     -11.163 -19.434  -4.993  1.00  0.00     0.169 HD
HETATM   15  O   LIG     1     -12.287 -21.851  -6.666  1.00  0.00    -0.272 OA
BRANCH  13  16
HETATM   16  C   LIG     1     -12.953 -20.281  -4.418  1.00  0.00     0.035 A 
HETATM   17  C   LIG     1     -14.091 -19.793  -5.056  1.00  0.00    -0.057 A 
HETATM   18  C   LIG     1     -15.337 -19.873  -4.424  1.00  0.00    -0.080 A 
HETATM   19  H   LIG     1     -14.028 -19.378  -6.057  1.00  0.00     0.086 H 
HETATM   20  C   LIG     1     -15.440 -20.380  -3.128  1.00  0.00    -0.076 A 
HETATM   21  H   LIG     1     -16.231 -19.526  -4.936  1.00  0.00     0.083 H 
HETATM   22  C   LIG     1     -14.290 -20.801  -2.457  1.00  0.00    -0.052 A 
HETATM   23  H   LIG     1     -16.411 -20.420  -2.640  1.00  0.00     0.084 H 
HETATM   24  C   LIG     1     -13.064 -20.798  -3.135  1.00  0.00    -0.051 A 
HETATM   25  H   LIG     1     -12.181 -21.136  -2.611  1.00  0.00     0.087 H 
BRANCH  22  26
HETATM   26  C   LIG     1     -14.341 -21.259  -1.023  1.00  0.00    -0.017 C 
HETATM   27  H   LIG     1     -13.447 -20.916  -0.486  1.00  0.00     0.047 H 
HETATM   28  H   LIG     1     -15.181 -20.760  -0.522  1.00  0.00     0.047 H 
BRANCH  26  29
HETATM   29  C   LIG     1     -14.456 -22.755  -0.885  1.00  0.00    -0.054 A 
HETATM   30  C   LIG     1     -15.527 -23.446  -1.474  1.00  0.00    -0.075 A 
HETATM   31  C   LIG     1     -15.637 -24.825  -1.346  1.00  0.00    -0.060 A 
HETATM   32  H   LIG     1     -16.290 -22.899  -2.021  1.00  0.00     0.084 H 
HETATM   33  C   LIG     1     -14.675 -25.518  -0.619  1.00  0.00     0.074 A 
HETATM   34  H   LIG     1     -16.477 -25.343  -1.807  1.00  0.00     0.085 H 
HETATM   35  C   LIG     1     -13.598 -24.854  -0.024  1.00  0.00    -0.060 A 
HETATM   36  C   LIG     1     -13.495 -23.466  -0.160  1.00  0.00    -0.075 A 
HETATM   37  H   LIG     1     -12.852 -25.390   0.546  1.00  0.00     0.085 H 
HETATM   38  H   LIG     1     -12.664 -22.945   0.310  1.00  0.00     0.084 H 
BRANCH  33  39
HETATM   39  S   LIG     1     -14.775 -27.273  -0.474  1.00  0.00     0.239 S 
HETATM   40  O   LIG     1     -15.698 -27.618   0.561  1.00  0.00    -0.206 OA
HETATM   41  O   LIG     1     -13.429 -27.823  -0.536  1.00  0.00    -0.206 OA
BRANCH  39  42
HETATM   42  N   LIG     1     -15.506 -27.689  -1.925  1.00  0.00    -0.225 NA
HETATM   43  H   LIG     1     -16.414 -28.116  -1.741  1.00  0.00     0.136 HD
HETATM   44  H   LIG     1     -14.879 -28.259  -2.489  1.00  0.00     0.136 HD
ENDBRANCH  39  42
ENDBRANCH  33  39
ENDBRANCH  26  29
ENDBRANCH  22  26
ENDBRANCH  13  16
ENDBRANCH  10  12
BRANCH  10  45
HETATM   45  S   LIG     1      -9.364 -19.381  -6.172  1.00  0.00    -0.163 SA
HETATM   46  H   LIG     1      -9.945 -19.373  -4.956  1.00  0.00     0.102 HD
ENDBRANCH  10  45
ENDBRANCH   1  10
BRANCH   6  47
HETATM   47  C   LIG     1      -9.497 -23.708  -8.247  1.00  0.00    -0.026 C 
HETATM   48  H   LIG     1      -8.773 -24.249  -8.873  1.00  0.00     0.042 H 
HETATM   49  H   LIG     1      -9.726 -22.804  -8.817  1.00  0.00     0.042 H 
BRANCH  47  50
HETATM   50  C   LIG     1     -10.742 -24.582  -8.060  1.00  0.00    -0.001 C 
HETATM   51  H   LIG     1     -10.566 -25.590  -8.446  1.00  0.00     0.064 H 
HETATM   52  H   LIG     1     -11.592 -24.161  -8.612  1.00  0.00     0.064 H 
BRANCH  50  53
HETATM   53  N   LIG     1     -11.155 -24.633  -6.667  1.00  0.00    -0.360 N 
HETATM   54  C   LIG     1     -12.414 -25.025  -6.274  1.00  0.00     0.221 C 
HETATM   55  O   LIG     1     -13.264 -25.389  -7.075  1.00  0.00    -0.273 OA
HETATM   56  H   LIG     1     -10.556 -24.188  -5.984  1.00  0.00     0.162 HD
BRANCH  54  57
HETATM   57  C   LIG     1     -12.674 -24.934  -4.767  1.00  0.00     0.024 C 
HETATM   58  H   LIG     1     -13.452 -24.163  -4.671  1.00  0.00     0.054 H 
HETATM   59  C   LIG     1     -13.273 -26.236  -4.207  1.00  0.00    -0.051 C 
HETATM   60  C   LIG     1     -12.252 -27.316  -3.849  1.00  0.00    -0.040 C 
HETATM   61  H   LIG     1     -13.990 -26.666  -4.920  1.00  0.00     0.034 H 
HETATM   62  H   LIG     1     -13.853 -25.995  -3.308  1.00  0.00     0.034 H 
HETATM   63  C   LIG     1     -11.075 -26.806  -3.033  1.00  0.00     0.035 C 
HETATM   64  H   LIG     1     -11.866 -27.773  -4.765  1.00  0.00     0.036 H 
HETATM   65  H   LIG     1     -12.777 -28.100  -3.288  1.00  0.00     0.036 H 
HETATM   66  H   LIG     1     -10.310 -27.590  -2.972  1.00  0.00     0.082 H 
HETATM   67  C   LIG     1     -10.445 -25.560  -3.645  1.00  0.00    -0.040 C 
HETATM   68  C   LIG     1     -11.440 -24.455  -3.993  1.00  0.00    -0.051 C 
HETATM   69  H   LIG     1      -9.908 -25.845  -4.556  1.00  0.00     0.036 H 
HETATM   70  H   LIG     1      -9.708 -25.142  -2.948  1.00  0.00     0.036 H 
HETATM   71  H   LIG     1     -10.889 -23.692  -4.556  1.00  0.00     0.034 H 
HETATM   72  H   LIG     1     -11.771 -23.953  -3.075  1.00  0.00     0.034 H 
BRANCH  63  73
HETATM   73  O   LIG     1     -11.497 -26.524  -1.705  1.00  0.00    -0.396 OA
HETATM   74  H   LIG     1     -11.856 -27.351  -1.334  1.00  0.00     0.210 HD
ENDBRANCH  63  73
ENDBRANCH  54  57
ENDBRANCH  50  53
ENDBRANCH  47  50
ENDBRANCH   6  47
TORSDOF 13
ENDMDL
MODEL 6
REMARK minimizedAffinity -5.62533283
REMARK minimizedRMSD -1
REMARK  13 active torsions:
REMARK  status: ('A' for Active; 'I' for Inactive)
REMARK    1  A    between atoms: N_1  and  S_2 
REMARK    2  A    between atoms: S_2  and  C_5 
REMARK    3  A    between atoms: C_8  and  C_9 
REMARK    4  A    between atoms: C_9  and  C_10 
REMARK    5  A    between atoms: C_14  and  N_15 
REMARK       I    between atoms: N_15  and  C_16 
REMARK    6  A    between atoms: C_16  and  C_18 
REMARK    7  A    between atoms: C_18  and  S_19 
REMARK    8  A    between atoms: C_18  and  C_20 
REMARK    9  A    between atoms: C_25  and  C_26 
REMARK   10  A    between atoms: C_26  and  C_27 
REMARK   11  A    between atoms: C_27  and  N_28 
REMARK       I    between atoms: N_28  and  C_29 
REMARK   12  A    between atoms: C_29  and  C_31 
REMARK   13  A    between atoms: C_35  and  O_37 
ROOT
HETATM    1  C   LIG     1      -7.868 -26.021  -5.688  1.00  0.00    -0.012 A 
HETATM    2  C   LIG     1      -7.081 -25.652  -4.588  1.00  0.00     0.010 A 
HETATM    3  N   LIG     1      -5.728 -25.698  -4.535  1.00  0.00    -0.272 NA
HETATM    4  C   LIG     1      -5.095 -26.163  -5.621  1.00  0.00     0.002 A 
HETATM    5  C   LIG     1      -5.758 -26.604  -6.750  1.00  0.00    -0.059 A 
HETATM    6  C   LIG     1      -7.166 -26.547  -6.799  1.00  0.00    -0.046 A 
HETATM    7  H   LIG     1      -7.524 -25.279  -3.667  1.00  0.00     0.115 H 
HETATM    8  H   LIG     1      -4.011 -26.186  -5.559  1.00  0.00     0.114 H 
HETATM    9  H   LIG     1      -5.177 -26.993  -7.583  1.00  0.00     0.086 H 
ENDROOT
BRANCH   1  10
HETATM   10  C   LIG     1      -9.386 -25.850  -5.641  1.00  0.00     0.093 C 
HETATM   11  H   LIG     1      -9.800 -26.060  -6.630  1.00  0.00     0.078 H 
BRANCH  10  12
HETATM   12  C   LIG     1     -10.103 -26.707  -4.581  1.00  0.00     0.240 C 
HETATM   13  N   LIG     1     -10.919 -27.700  -5.120  1.00  0.00    -0.326 N 
HETATM   14  H   LIG     1     -10.606 -28.119  -5.989  1.00  0.00     0.169 HD
HETATM   15  O   LIG     1     -10.009 -26.468  -3.378  1.00  0.00    -0.272 OA
BRANCH  13  16
HETATM   16  C   LIG     1     -11.706 -28.527  -4.292  1.00  0.00     0.035 A 
HETATM   17  C   LIG     1     -12.711 -28.012  -3.477  1.00  0.00    -0.057 A 
HETATM   18  C   LIG     1     -13.524 -28.877  -2.735  1.00  0.00    -0.080 A 
HETATM   19  H   LIG     1     -12.895 -26.943  -3.435  1.00  0.00     0.086 H 
HETATM   20  C   LIG     1     -13.291 -30.253  -2.755  1.00  0.00    -0.076 A 
HETATM   21  H   LIG     1     -14.331 -28.478  -2.127  1.00  0.00     0.083 H 
HETATM   22  C   LIG     1     -12.237 -30.766  -3.512  1.00  0.00    -0.052 A 
HETATM   23  H   LIG     1     -13.917 -30.914  -2.160  1.00  0.00     0.084 H 
HETATM   24  C   LIG     1     -11.490 -29.897  -4.319  1.00  0.00    -0.051 A 
HETATM   25  H   LIG     1     -10.682 -30.306  -4.911  1.00  0.00     0.087 H 
BRANCH  22  26
HETATM   26  C   LIG     1     -11.887 -32.231  -3.482  1.00  0.00    -0.017 C 
HETATM   27  H   LIG     1     -12.675 -32.795  -2.965  1.00  0.00     0.047 H 
HETATM   28  H   LIG     1     -11.891 -32.617  -4.509  1.00  0.00     0.047 H 
BRANCH  26  29
HETATM   29  C   LIG     1     -10.564 -32.508  -2.817  1.00  0.00    -0.054 A 
HETATM   30  C   LIG     1     -10.096 -31.679  -1.786  1.00  0.00    -0.075 A 
HETATM   31  C   LIG     1      -8.874 -31.930  -1.173  1.00  0.00    -0.060 A 
HETATM   32  H   LIG     1     -10.683 -30.820  -1.471  1.00  0.00     0.084 H 
HETATM   33  C   LIG     1      -8.112 -33.012  -1.599  1.00  0.00     0.074 A 
HETATM   34  H   LIG     1      -8.526 -31.274  -0.377  1.00  0.00     0.085 H 
HETATM   35  C   LIG     1      -8.555 -33.854  -2.624  1.00  0.00    -0.060 A 
HETATM   36  C   LIG     1      -9.787 -33.594  -3.232  1.00  0.00    -0.075 A 
HETATM   37  H   LIG     1      -7.961 -34.693  -2.961  1.00  0.00     0.085 H 
HETATM   38  H   LIG     1     -10.131 -34.241  -4.037  1.00  0.00     0.084 H 
BRANCH  33  39
HETATM   39  S   LIG     1      -6.575 -33.371  -0.812  1.00  0.00     0.239 S 
HETATM   40  O   LIG     1      -6.726 -34.503   0.046  1.00  0.00    -0.206 OA
HETATM   41  O   LIG     1      -5.980 -32.122  -0.359  1.00  0.00    -0.206 OA
BRANCH  39  42
HETATM   42  N   LIG     1      -5.641 -33.876  -2.111  1.00  0.00    -0.225 NA
HETATM   43  H   LIG     1      -5.372 -34.851  -1.980  1.00  0.00     0.136 HD
HETATM   44  H   LIG     1      -4.861 -33.239  -2.257  1.00  0.00     0.136 HD
ENDBRANCH  39  42
ENDBRANCH  33  39
ENDBRANCH  26  29
ENDBRANCH  22  26
ENDBRANCH  13  16
ENDBRANCH  10  12
BRANCH  10  45
HETATM   45  S   LIG     1      -9.916 -24.107  -5.306  1.00  0.00    -0.163 SA
HETATM   46  H   LIG     1      -9.841 -24.204  -3.965  1.00  0.00     0.102 HD
ENDBRANCH  10  45
ENDBRANCH   1  10
BRANCH   6  47
HETATM   47  C   LIG     1      -7.820 -27.117  -8.041  1.00  0.00    -0.026 C 
HETATM   48  H   LIG     1      -7.534 -26.506  -8.910  1.00  0.00     0.042 H 
HETATM   49  H   LIG     1      -8.909 -27.026  -7.994  1.00  0.00     0.042 H 
BRANCH  47  50
HETATM   50  C   LIG     1      -7.391 -28.567  -8.289  1.00  0.00    -0.001 C 
HETATM   51  H   LIG     1      -6.426 -28.599  -8.804  1.00  0.00     0.064 H 
HETATM   52  H   LIG     1      -8.122 -29.079  -8.926  1.00  0.00     0.064 H 
BRANCH  50  53
HETATM   53  N   LIG     1      -7.335 -29.327  -7.051  1.00  0.00    -0.360 N 
HETATM   54  C   LIG     1      -8.386 -30.085  -6.591  1.00  0.00     0.221 C 
HETATM   55  O   LIG     1      -9.434 -30.196  -7.214  1.00  0.00    -0.273 OA
HETATM   56  H   LIG     1      -6.566 -29.139  -6.421  1.00  0.00     0.162 HD
BRANCH  54  57
HETATM   57  C   LIG     1      -8.155 -30.745  -5.228  1.00  0.00     0.024 C 
HETATM   58  H   LIG     1      -9.124 -31.200  -4.977  1.00  0.00     0.054 H 
HETATM   59  C   LIG     1      -7.137 -31.895  -5.311  1.00  0.00    -0.051 C 
HETATM   60  C   LIG     1      -5.671 -31.469  -5.225  1.00  0.00    -0.040 C 
HETATM   61  H   LIG     1      -7.274 -32.462  -6.242  1.00  0.00     0.034 H 
HETATM   62  H   LIG     1      -7.341 -32.602  -4.498  1.00  0.00     0.034 H 
HETATM   63  C   LIG     1      -5.377 -30.497  -4.093  1.00  0.00     0.035 C 
HETATM   64  H   LIG     1      -5.369 -31.004  -6.168  1.00  0.00     0.036 H 
HETATM   65  H   LIG     1      -5.065 -32.376  -5.098  1.00  0.00     0.036 H 
HETATM   66  H   LIG     1      -4.358 -30.106  -4.208  1.00  0.00     0.082 H 
HETATM   67  C   LIG     1      -6.348 -29.323  -4.074  1.00  0.00    -0.040 C 
HETATM   68  C   LIG     1      -7.821 -29.720  -4.137  1.00  0.00    -0.051 C 
HETATM   69  H   LIG     1      -6.128 -28.666  -4.922  1.00  0.00     0.036 H 
HETATM   70  H   LIG     1      -6.197 -28.737  -3.159  1.00  0.00     0.036 H 
HETATM   71  H   LIG     1      -8.398 -28.796  -4.269  1.00  0.00     0.034 H 
HETATM   72  H   LIG     1      -8.138 -30.121  -3.166  1.00  0.00     0.034 H 
BRANCH  63  73
HETATM   73  O   LIG     1      -5.429 -31.179  -2.847  1.00  0.00    -0.396 OA
HETATM   74  H   LIG     1      -4.769 -31.896  -2.882  1.00  0.00     0.210 HD
ENDBRANCH  63  73
ENDBRANCH  54  57
ENDBRANCH  50  53
ENDBRANCH  47  50
ENDBRANCH   6  47
TORSDOF 13
ENDMDL
