MODEL 1
REMARK minimizedAffinity -6.70418692
REMARK minimizedRMSD -1
REMARK  11 active torsions:
REMARK  status: ('A' for Active; 'I' for Inactive)
REMARK    1  A    between atoms: N_1  and  S_2 
REMARK    2  A    between atoms: S_2  and  C_5 
REMARK    3  A    between atoms: C_8  and  C_9 
REMARK    4  A    between atoms: C_9  and  C_10 
REMARK    5  A    between atoms: C_14  and  N_15 
REMARK       I    between atoms: N_15  and  C_16 
REMARK       I    between atoms: C_16  and  N_18 
REMARK    6  A    between atoms: N_18  and  C_19 
REMARK    7  A    between atoms: C_21  and  C_22 
REMARK    8  A    between atoms: C_22  and  C_23 
REMARK    9  A    between atoms: C_23  and  N_24 
REMARK       I    between atoms: N_24  and  C_25 
REMARK   10  A    between atoms: C_25  and  C_27 
REMARK   11  A    between atoms: C_30  and  O_31 
ROOT
HETATM    1  C   LIG     1      -8.744 -22.885  -1.992  1.00  0.00     0.054 A 
HETATM    2  C   LIG     1      -9.541 -23.035  -3.128  1.00  0.00    -0.048 A 
HETATM    3  C   LIG     1      -9.427 -22.142  -4.200  1.00  0.00    -0.037 A 
HETATM    4  C   LIG     1      -8.480 -21.129  -4.079  1.00  0.00     0.008 A 
HETATM    5  N   LIG     1      -7.683 -20.958  -2.999  1.00  0.00    -0.270 NA
HETATM    6  C   LIG     1      -7.837 -21.833  -1.974  1.00  0.00     0.028 A 
HETATM    7  H   LIG     1     -10.294 -23.818  -3.158  1.00  0.00     0.087 H 
HETATM    8  H   LIG     1      -8.333 -20.394  -4.867  1.00  0.00     0.115 H 
HETATM    9  H   LIG     1      -7.160 -21.674  -1.140  1.00  0.00     0.118 H 
ENDROOT
BRANCH   1  10
HETATM   10  N   LIG     1      -8.870 -23.836  -0.962  1.00  0.00    -0.307 N 
HETATM   11  C   LIG     1      -9.974 -23.932  -0.128  1.00  0.00     0.325 C 
HETATM   12  N   LIG     1      -9.771 -24.943   0.794  1.00  0.00    -0.309 N 
HETATM   13  O   LIG     1     -10.968 -23.226  -0.205  1.00  0.00    -0.247 OA
HETATM   14  H   LIG     1      -8.832 -24.925   1.164  1.00  0.00     0.170 HD
HETATM   15  H   LIG     1      -8.430 -24.730  -1.121  1.00  0.00     0.170 HD
BRANCH  12  16
HETATM   16  C   LIG     1     -10.764 -25.422   1.677  1.00  0.00     0.036 A 
HETATM   17  C   LIG     1     -10.388 -25.631   3.004  1.00  0.00    -0.057 A 
HETATM   18  C   LIG     1     -11.298 -26.163   3.910  1.00  0.00    -0.080 A 
HETATM   19  H   LIG     1      -9.404 -25.344   3.360  1.00  0.00     0.086 H 
HETATM   20  C   LIG     1     -12.569 -26.548   3.482  1.00  0.00    -0.076 A 
HETATM   21  H   LIG     1     -11.022 -26.295   4.952  1.00  0.00     0.083 H 
HETATM   22  C   LIG     1     -12.975 -26.372   2.150  1.00  0.00    -0.052 A 
HETATM   23  H   LIG     1     -13.231 -26.998   4.217  1.00  0.00     0.084 H 
HETATM   24  C   LIG     1     -12.057 -25.778   1.253  1.00  0.00    -0.051 A 
HETATM   25  H   LIG     1     -12.338 -25.638   0.212  1.00  0.00     0.087 H 
BRANCH  22  26
HETATM   26  C   LIG     1     -14.347 -26.829   1.654  1.00  0.00    -0.017 C 
HETATM   27  H   LIG     1     -14.956 -27.108   2.522  1.00  0.00     0.047 H 
HETATM   28  H   LIG     1     -14.845 -25.974   1.180  1.00  0.00     0.047 H 
BRANCH  26  29
HETATM   29  C   LIG     1     -14.370 -27.997   0.668  1.00  0.00    -0.054 A 
HETATM   30  C   LIG     1     -13.245 -28.827   0.527  1.00  0.00    -0.075 A 
HETATM   31  C   LIG     1     -13.192 -29.797  -0.482  1.00  0.00    -0.060 A 
HETATM   32  H   LIG     1     -12.386 -28.688   1.181  1.00  0.00     0.084 H 
HETATM   33  C   LIG     1     -14.278 -29.950  -1.350  1.00  0.00     0.074 A 
HETATM   34  H   LIG     1     -12.280 -30.381  -0.584  1.00  0.00     0.085 H 
HETATM   35  C   LIG     1     -15.428 -29.184  -1.180  1.00  0.00    -0.060 A 
HETATM   36  C   LIG     1     -15.474 -28.214  -0.174  1.00  0.00    -0.075 A 
HETATM   37  H   LIG     1     -16.270 -29.320  -1.849  1.00  0.00     0.085 H 
HETATM   38  H   LIG     1     -16.366 -27.602  -0.078  1.00  0.00     0.084 H 
BRANCH  33  39
HETATM   39  S   LIG     1     -14.182 -31.029  -2.758  1.00  0.00     0.239 S 
HETATM   40  O   LIG     1     -15.457 -31.678  -2.908  1.00  0.00    -0.206 OA
HETATM   41  O   LIG     1     -12.953 -31.799  -2.653  1.00  0.00    -0.206 OA
BRANCH  39  42
HETATM   42  N   LIG     1     -13.949 -29.967  -4.052  1.00  0.00    -0.225 NA
HETATM   43  H   LIG     1     -14.700 -29.964  -4.743  1.00  0.00     0.136 HD
HETATM   44  H   LIG     1     -13.011 -30.087  -4.463  1.00  0.00     0.136 HD
ENDBRANCH  39  42
ENDBRANCH  33  39
ENDBRANCH  26  29
ENDBRANCH  22  26
ENDBRANCH  12  16
ENDBRANCH   1  10
BRANCH   3  45
HETATM   45  C   LIG     1     -10.335 -22.228  -5.400  1.00  0.00    -0.025 C 
HETATM   46  H   LIG     1     -10.079 -23.110  -6.001  1.00  0.00     0.042 H 
HETATM   47  H   LIG     1     -10.117 -21.359  -6.037  1.00  0.00     0.042 H 
BRANCH  45  48
HETATM   48  C   LIG     1     -11.841 -22.237  -5.087  1.00  0.00    -0.001 C 
HETATM   49  H   LIG     1     -12.374 -21.796  -5.937  1.00  0.00     0.064 H 
HETATM   50  H   LIG     1     -12.057 -21.618  -4.211  1.00  0.00     0.064 H 
BRANCH  48  51
HETATM   51  N   LIG     1     -12.408 -23.566  -4.884  1.00  0.00    -0.360 N 
HETATM   52  C   LIG     1     -12.985 -23.925  -3.679  1.00  0.00     0.221 C 
HETATM   53  O   LIG     1     -13.018 -23.155  -2.719  1.00  0.00    -0.273 OA
HETATM   54  H   LIG     1     -12.635 -24.112  -5.706  1.00  0.00     0.162 HD
BRANCH  52  55
HETATM   55  C   LIG     1     -13.471 -25.388  -3.589  1.00  0.00     0.024 C 
HETATM   56  C   LIG     1     -13.045 -26.242  -4.792  1.00  0.00    -0.051 C 
HETATM   57  C   LIG     1     -11.647 -26.872  -4.729  1.00  0.00    -0.040 C 
HETATM   58  H   LIG     1     -13.119 -25.661  -5.721  1.00  0.00     0.034 H 
HETATM   59  H   LIG     1     -13.775 -27.056  -4.899  1.00  0.00     0.034 H 
HETATM   60  C   LIG     1     -11.161 -27.327  -3.351  1.00  0.00     0.035 C 
HETATM   61  H   LIG     1     -10.926 -26.149  -5.126  1.00  0.00     0.036 H 
HETATM   62  H   LIG     1     -11.636 -27.728  -5.414  1.00  0.00     0.036 H 
HETATM   63  C   LIG     1     -11.665 -26.493  -2.179  1.00  0.00    -0.040 C 
HETATM   64  H   LIG     1     -10.062 -27.308  -3.340  1.00  0.00     0.082 H 
HETATM   65  C   LIG     1     -13.141 -26.120  -2.288  1.00  0.00    -0.051 C 
HETATM   66  H   LIG     1     -11.070 -25.578  -2.093  1.00  0.00     0.036 H 
HETATM   67  H   LIG     1     -11.529 -27.058  -1.245  1.00  0.00     0.036 H 
HETATM   68  H   LIG     1     -13.428 -25.533  -1.411  1.00  0.00     0.034 H 
HETATM   69  H   LIG     1     -13.741 -27.040  -2.247  1.00  0.00     0.034 H 
HETATM   70  H   LIG     1     -14.565 -25.296  -3.643  1.00  0.00     0.054 H 
BRANCH  60  71
HETATM   71  O   LIG     1     -11.549 -28.682  -3.124  1.00  0.00    -0.396 OA
HETATM   72  H   LIG     1     -10.745 -29.223  -3.222  1.00  0.00     0.210 HD
ENDBRANCH  60  71
ENDBRANCH  52  55
ENDBRANCH  48  51
ENDBRANCH  45  48
ENDBRANCH   3  45
TORSDOF 11
ENDMDL
MODEL 2
REMARK minimizedAffinity -6.32715082
REMARK minimizedRMSD -1
REMARK  11 active torsions:
REMARK  status: ('A' for Active; 'I' for Inactive)
REMARK    1  A    between atoms: N_1  and  S_2 
REMARK    2  A    between atoms: S_2  and  C_5 
REMARK    3  A    between atoms: C_8  and  C_9 
REMARK    4  A    between atoms: C_9  and  C_10 
REMARK    5  A    between atoms: C_14  and  N_15 
REMARK       I    between atoms: N_15  and  C_16 
REMARK       I    between atoms: C_16  and  N_18 
REMARK    6  A    between atoms: N_18  and  C_19 
REMARK    7  A    between atoms: C_21  and  C_22 
REMARK    8  A    between atoms: C_22  and  C_23 
REMARK    9  A    between atoms: C_23  and  N_24 
REMARK       I    between atoms: N_24  and  C_25 
REMARK   10  A    between atoms: C_25  and  C_27 
REMARK   11  A    between atoms: C_30  and  O_31 
ROOT
HETATM    1  C   LIG     1      -8.694 -23.266  -1.882  1.00  0.00     0.054 A 
HETATM    2  C   LIG     1      -8.533 -23.787  -3.167  1.00  0.00    -0.048 A 
HETATM    3  C   LIG     1      -8.286 -22.938  -4.252  1.00  0.00    -0.037 A 
HETATM    4  C   LIG     1      -8.192 -21.576  -3.981  1.00  0.00     0.008 A 
HETATM    5  N   LIG     1      -8.332 -21.036  -2.748  1.00  0.00    -0.270 NA
HETATM    6  C   LIG     1      -8.589 -21.890  -1.725  1.00  0.00     0.028 A 
HETATM    7  H   LIG     1      -8.655 -24.853  -3.335  1.00  0.00     0.087 H 
HETATM    8  H   LIG     1      -8.005 -20.853  -4.770  1.00  0.00     0.115 H 
HETATM    9  H   LIG     1      -8.668 -21.415  -0.752  1.00  0.00     0.118 H 
ENDROOT
BRANCH   1  10
HETATM   10  N   LIG     1      -8.899 -24.167  -0.820  1.00  0.00    -0.307 N 
HETATM   11  C   LIG     1     -10.080 -24.258  -0.099  1.00  0.00     0.325 C 
HETATM   12  N   LIG     1      -9.945 -25.214   0.891  1.00  0.00    -0.309 N 
HETATM   13  O   LIG     1     -11.080 -23.590  -0.314  1.00  0.00    -0.247 OA
HETATM   14  H   LIG     1      -9.050 -25.146   1.353  1.00  0.00     0.170 HD
HETATM   15  H   LIG     1      -8.420 -25.052  -0.886  1.00  0.00     0.170 HD
BRANCH  12  16
HETATM   16  C   LIG     1     -11.009 -25.681   1.693  1.00  0.00     0.036 A 
HETATM   17  C   LIG     1     -10.745 -25.881   3.048  1.00  0.00    -0.057 A 
HETATM   18  C   LIG     1     -11.730 -26.401   3.880  1.00  0.00    -0.080 A 
HETATM   19  H   LIG     1      -9.791 -25.597   3.482  1.00  0.00     0.086 H 
HETATM   20  C   LIG     1     -12.963 -26.783   3.352  1.00  0.00    -0.076 A 
HETATM   21  H   LIG     1     -11.540 -26.526   4.942  1.00  0.00     0.083 H 
HETATM   22  C   LIG     1     -13.258 -26.615   1.991  1.00  0.00    -0.052 A 
HETATM   23  H   LIG     1     -13.686 -27.224   4.035  1.00  0.00     0.084 H 
HETATM   24  C   LIG     1     -12.265 -26.034   1.167  1.00  0.00    -0.051 A 
HETATM   25  H   LIG     1     -12.459 -25.901   0.106  1.00  0.00     0.087 H 
BRANCH  22  26
HETATM   26  C   LIG     1     -14.586 -27.070   1.387  1.00  0.00    -0.017 C 
HETATM   27  H   LIG     1     -15.261 -27.354   2.204  1.00  0.00     0.047 H 
HETATM   28  H   LIG     1     -15.046 -26.212   0.881  1.00  0.00     0.047 H 
BRANCH  26  29
HETATM   29  C   LIG     1     -14.533 -28.232   0.396  1.00  0.00    -0.054 A 
HETATM   30  C   LIG     1     -13.437 -29.112   0.395  1.00  0.00    -0.075 A 
HETATM   31  C   LIG     1     -13.296 -30.081  -0.607  1.00  0.00    -0.060 A 
HETATM   32  H   LIG     1     -12.666 -29.015   1.158  1.00  0.00     0.084 H 
HETATM   33  C   LIG     1     -14.265 -30.181  -1.611  1.00  0.00     0.074 A 
HETATM   34  H   LIG     1     -12.406 -30.705  -0.594  1.00  0.00     0.085 H 
HETATM   35  C   LIG     1     -15.391 -29.363  -1.587  1.00  0.00    -0.060 A 
HETATM   36  C   LIG     1     -15.525 -28.395  -0.586  1.00  0.00    -0.075 A 
HETATM   37  H   LIG     1     -16.143 -29.458  -2.361  1.00  0.00     0.085 H 
HETATM   38  H   LIG     1     -16.393 -27.743  -0.602  1.00  0.00     0.084 H 
BRANCH  33  39
HETATM   39  S   LIG     1     -14.033 -31.258  -3.005  1.00  0.00     0.239 S 
HETATM   40  O   LIG     1     -12.799 -31.972  -2.814  1.00  0.00    -0.206 OA
HETATM   41  O   LIG     1     -14.280 -30.490  -4.214  1.00  0.00    -0.206 OA
BRANCH  39  42
HETATM   42  N   LIG     1     -15.322 -32.345  -2.879  1.00  0.00    -0.225 NA
HETATM   43  H   LIG     1     -15.049 -33.316  -2.726  1.00  0.00     0.136 HD
HETATM   44  H   LIG     1     -15.986 -32.221  -3.659  1.00  0.00     0.136 HD
ENDBRANCH  39  42
ENDBRANCH  33  39
ENDBRANCH  26  29
ENDBRANCH  22  26
ENDBRANCH  12  16
ENDBRANCH   1  10
BRANCH   3  45
HETATM   45  C   LIG     1      -8.196 -23.465  -5.663  1.00  0.00    -0.025 C 
HETATM   46  H   LIG     1      -7.227 -23.194  -6.102  1.00  0.00     0.042 H 
HETATM   47  H   LIG     1      -8.953 -22.935  -6.258  1.00  0.00     0.042 H 
BRANCH  45  48
HETATM   48  C   LIG     1      -8.427 -24.977  -5.817  1.00  0.00    -0.001 C 
HETATM   49  H   LIG     1      -7.849 -25.497  -5.046  1.00  0.00     0.064 H 
HETATM   50  H   LIG     1      -8.063 -25.327  -6.788  1.00  0.00     0.064 H 
BRANCH  48  51
HETATM   51  N   LIG     1      -9.816 -25.397  -5.650  1.00  0.00    -0.360 N 
HETATM   52  C   LIG     1     -10.156 -26.434  -4.801  1.00  0.00     0.221 C 
HETATM   53  O   LIG     1      -9.306 -27.068  -4.176  1.00  0.00    -0.273 OA
HETATM   54  H   LIG     1     -10.540 -24.746  -5.926  1.00  0.00     0.162 HD
BRANCH  52  55
HETATM   55  C   LIG     1     -11.653 -26.813  -4.788  1.00  0.00     0.024 C 
HETATM   56  C   LIG     1     -12.063 -27.616  -3.543  1.00  0.00    -0.051 C 
HETATM   57  C   LIG     1     -12.421 -26.807  -2.290  1.00  0.00    -0.040 C 
HETATM   58  H   LIG     1     -11.278 -28.336  -3.276  1.00  0.00     0.034 H 
HETATM   59  H   LIG     1     -12.936 -28.224  -3.812  1.00  0.00     0.034 H 
HETATM   60  C   LIG     1     -13.132 -25.470  -2.516  1.00  0.00     0.035 C 
HETATM   61  H   LIG     1     -11.500 -26.616  -1.729  1.00  0.00     0.036 H 
HETATM   62  H   LIG     1     -13.046 -27.443  -1.651  1.00  0.00     0.036 H 
HETATM   63  C   LIG     1     -12.748 -24.742  -3.798  1.00  0.00    -0.040 C 
HETATM   64  H   LIG     1     -12.918 -24.808  -1.665  1.00  0.00     0.082 H 
HETATM   65  C   LIG     1     -12.634 -25.662  -5.010  1.00  0.00    -0.051 C 
HETATM   66  H   LIG     1     -11.797 -24.218  -3.655  1.00  0.00     0.036 H 
HETATM   67  H   LIG     1     -13.508 -23.978  -4.025  1.00  0.00     0.036 H 
HETATM   68  H   LIG     1     -12.365 -25.067  -5.888  1.00  0.00     0.034 H 
HETATM   69  H   LIG     1     -13.624 -26.087  -5.225  1.00  0.00     0.034 H 
HETATM   70  H   LIG     1     -11.750 -27.494  -5.645  1.00  0.00     0.054 H 
BRANCH  60  71
HETATM   71  O   LIG     1     -14.546 -25.670  -2.532  1.00  0.00    -0.396 OA
HETATM   72  H   LIG     1     -14.885 -25.332  -1.684  1.00  0.00     0.210 HD
ENDBRANCH  60  71
ENDBRANCH  52  55
ENDBRANCH  48  51
ENDBRANCH  45  48
ENDBRANCH   3  45
TORSDOF 11
ENDMDL
MODEL 3
REMARK minimizedAffinity -5.42630959
REMARK minimizedRMSD -1
REMARK  11 active torsions:
REMARK  status: ('A' for Active; 'I' for Inactive)
REMARK    1  A    between atoms: N_1  and  S_2 
REMARK    2  A    between atoms: S_2  and  C_5 
REMARK    3  A    between atoms: C_8  and  C_9 
REMARK    4  A    between atoms: C_9  and  C_10 
REMARK    5  A    between atoms: C_14  and  N_15 
REMARK       I    between atoms: N_15  and  C_16 
REMARK       I    between atoms: C_16  and  N_18 
REMARK    6  A    between atoms: N_18  and  C_19 
REMARK    7  A    between atoms: C_21  and  C_22 
REMARK    8  A    between atoms: C_22  and  C_23 
REMARK    9  A    between atoms: C_23  and  N_24 
REMARK       I    between atoms: N_24  and  C_25 
REMARK   10  A    between atoms: C_25  and  C_27 
REMARK   11  A    between atoms: C_30  and  O_31 
ROOT
HETATM    1  C   LIG     1      -6.959 -33.808  -3.817  1.00  0.00     0.054 A 
HETATM    2  C   LIG     1      -7.188 -34.104  -5.162  1.00  0.00    -0.048 A 
HETATM    3  C   LIG     1      -6.496 -35.147  -5.787  1.00  0.00    -0.037 A 
HETATM    4  C   LIG     1      -5.601 -35.871  -5.004  1.00  0.00     0.008 A 
HETATM    5  N   LIG     1      -5.361 -35.620  -3.696  1.00  0.00    -0.270 NA
HETATM    6  C   LIG     1      -6.037 -34.589  -3.131  1.00  0.00     0.028 A 
HETATM    7  H   LIG     1      -7.866 -33.484  -5.742  1.00  0.00     0.087 H 
HETATM    8  H   LIG     1      -5.023 -36.694  -5.417  1.00  0.00     0.115 H 
HETATM    9  H   LIG     1      -5.832 -34.441  -2.075  1.00  0.00     0.118 H 
ENDROOT
BRANCH   1  10
HETATM   10  N   LIG     1      -7.712 -32.775  -3.227  1.00  0.00    -0.307 N 
HETATM   11  C   LIG     1      -8.991 -32.944  -2.716  1.00  0.00     0.325 C 
HETATM   12  N   LIG     1      -9.462 -31.735  -2.239  1.00  0.00    -0.309 N 
HETATM   13  O   LIG     1      -9.599 -34.004  -2.697  1.00  0.00    -0.247 OA
HETATM   14  H   LIG     1      -9.242 -30.976  -2.868  1.00  0.00     0.170 HD
HETATM   15  H   LIG     1      -7.191 -32.069  -2.730  1.00  0.00     0.170 HD
BRANCH  12  16
HETATM   16  C   LIG     1     -10.656 -31.584  -1.499  1.00  0.00     0.036 A 
HETATM   17  C   LIG     1     -10.652 -32.047  -0.184  1.00  0.00    -0.057 A 
HETATM   18  C   LIG     1     -11.812 -31.989   0.579  1.00  0.00    -0.080 A 
HETATM   19  H   LIG     1      -9.742 -32.417   0.278  1.00  0.00     0.086 H 
HETATM   20  C   LIG     1     -13.000 -31.526   0.012  1.00  0.00    -0.076 A 
HETATM   21  H   LIG     1     -11.806 -32.316   1.614  1.00  0.00     0.083 H 
HETATM   22  C   LIG     1     -13.047 -31.070  -1.315  1.00  0.00    -0.052 A 
HETATM   23  H   LIG     1     -13.891 -31.538   0.634  1.00  0.00     0.084 H 
HETATM   24  C   LIG     1     -11.844 -31.084  -2.060  1.00  0.00    -0.051 A 
HETATM   25  H   LIG     1     -11.851 -30.748  -3.094  1.00  0.00     0.087 H 
BRANCH  22  26
HETATM   26  C   LIG     1     -14.348 -30.602  -1.966  1.00  0.00    -0.017 C 
HETATM   27  H   LIG     1     -14.273 -30.763  -3.048  1.00  0.00     0.047 H 
HETATM   28  H   LIG     1     -15.163 -31.245  -1.608  1.00  0.00     0.047 H 
BRANCH  26  29
HETATM   29  C   LIG     1     -14.754 -29.148  -1.733  1.00  0.00    -0.054 A 
HETATM   30  C   LIG     1     -14.371 -28.151  -2.647  1.00  0.00    -0.075 A 
HETATM   31  C   LIG     1     -14.595 -26.797  -2.367  1.00  0.00    -0.060 A 
HETATM   32  H   LIG     1     -13.858 -28.430  -3.566  1.00  0.00     0.084 H 
HETATM   33  C   LIG     1     -15.219 -26.435  -1.168  1.00  0.00     0.074 A 
HETATM   34  H   LIG     1     -14.237 -26.060  -3.081  1.00  0.00     0.085 H 
HETATM   35  C   LIG     1     -15.666 -27.412  -0.283  1.00  0.00    -0.060 A 
HETATM   36  C   LIG     1     -15.436 -28.762  -0.566  1.00  0.00    -0.075 A 
HETATM   37  H   LIG     1     -16.160 -27.121   0.636  1.00  0.00     0.085 H 
HETATM   38  H   LIG     1     -15.761 -29.510   0.152  1.00  0.00     0.084 H 
BRANCH  33  39
HETATM   39  S   LIG     1     -15.351 -24.731  -0.682  1.00  0.00     0.239 S 
HETATM   40  O   LIG     1     -16.552 -24.195  -1.263  1.00  0.00    -0.206 OA
HETATM   41  O   LIG     1     -14.061 -24.098  -0.902  1.00  0.00    -0.206 OA
BRANCH  39  42
HETATM   42  N   LIG     1     -15.541 -24.815   0.996  1.00  0.00    -0.225 NA
HETATM   43  H   LIG     1     -16.431 -24.456   1.343  1.00  0.00     0.136 HD
HETATM   44  H   LIG     1     -14.721 -24.420   1.480  1.00  0.00     0.136 HD
ENDBRANCH  39  42
ENDBRANCH  33  39
ENDBRANCH  26  29
ENDBRANCH  22  26
ENDBRANCH  12  16
ENDBRANCH   1  10
BRANCH   3  45
HETATM   45  C   LIG     1      -6.658 -35.432  -7.260  1.00  0.00    -0.025 C 
HETATM   46  H   LIG     1      -7.538 -36.067  -7.424  1.00  0.00     0.042 H 
HETATM   47  H   LIG     1      -5.793 -36.034  -7.573  1.00  0.00     0.042 H 
BRANCH  45  48
HETATM   48  C   LIG     1      -6.741 -34.192  -8.165  1.00  0.00    -0.001 C 
HETATM   49  H   LIG     1      -6.391 -34.469  -9.165  1.00  0.00     0.064 H 
HETATM   50  H   LIG     1      -6.081 -33.400  -7.797  1.00  0.00     0.064 H 
BRANCH  48  51
HETATM   51  N   LIG     1      -8.088 -33.652  -8.328  1.00  0.00    -0.360 N 
HETATM   52  C   LIG     1      -8.377 -32.336  -8.018  1.00  0.00     0.221 C 
HETATM   53  O   LIG     1      -7.525 -31.573  -7.563  1.00  0.00    -0.273 OA
HETATM   54  H   LIG     1      -8.724 -34.153  -8.935  1.00  0.00     0.162 HD
BRANCH  52  55
HETATM   55  C   LIG     1      -9.860 -31.932  -8.170  1.00  0.00     0.024 C 
HETATM   56  C   LIG     1     -10.820 -33.131  -8.133  1.00  0.00    -0.051 C 
HETATM   57  C   LIG     1     -11.261 -33.618  -6.747  1.00  0.00    -0.040 C 
HETATM   58  H   LIG     1     -10.391 -33.983  -8.678  1.00  0.00     0.034 H 
HETATM   59  H   LIG     1     -11.722 -32.853  -8.694  1.00  0.00     0.034 H 
HETATM   60  C   LIG     1     -11.452 -32.546  -5.671  1.00  0.00     0.035 C 
HETATM   61  H   LIG     1     -10.520 -34.340  -6.385  1.00  0.00     0.036 H 
HETATM   62  H   LIG     1     -12.198 -34.173  -6.871  1.00  0.00     0.036 H 
HETATM   63  C   LIG     1     -10.526 -31.341  -5.787  1.00  0.00    -0.040 C 
HETATM   64  H   LIG     1     -11.299 -33.004  -4.684  1.00  0.00     0.082 H 
HETATM   65  C   LIG     1     -10.353 -30.842  -7.219  1.00  0.00    -0.051 C 
HETATM   66  H   LIG     1      -9.543 -31.589  -5.373  1.00  0.00     0.036 H 
HETATM   67  H   LIG     1     -10.931 -30.512  -5.188  1.00  0.00     0.036 H 
HETATM   68  H   LIG     1      -9.686 -29.975  -7.218  1.00  0.00     0.034 H 
HETATM   69  H   LIG     1     -11.323 -30.476  -7.585  1.00  0.00     0.034 H 
HETATM   70  H   LIG     1      -9.909 -31.524  -9.189  1.00  0.00     0.054 H 
BRANCH  60  71
HETATM   71  O   LIG     1     -12.797 -32.069  -5.697  1.00  0.00    -0.396 OA
HETATM   72  H   LIG     1     -13.245 -32.456  -4.924  1.00  0.00     0.210 HD
ENDBRANCH  60  71
ENDBRANCH  52  55
ENDBRANCH  48  51
ENDBRANCH  45  48
ENDBRANCH   3  45
TORSDOF 11
ENDMDL
MODEL 4
REMARK minimizedAffinity -5.1734705
REMARK minimizedRMSD -1
REMARK  11 active torsions:
REMARK  status: ('A' for Active; 'I' for Inactive)
REMARK    1  A    between atoms: N_1  and  S_2 
REMARK    2  A    between atoms: S_2  and  C_5 
REMARK    3  A    between atoms: C_8  and  C_9 
REMARK    4  A    between atoms: C_9  and  C_10 
REMARK    5  A    between atoms: C_14  and  N_15 
REMARK       I    between atoms: N_15  and  C_16 
REMARK       I    between atoms: C_16  and  N_18 
REMARK    6  A    between atoms: N_18  and  C_19 
REMARK    7  A    between atoms: C_21  and  C_22 
REMARK    8  A    between atoms: C_22  and  C_23 
REMARK    9  A    between atoms: C_23  and  N_24 
REMARK       I    between atoms: N_24  and  C_25 
REMARK   10  A    between atoms: C_25  and  C_27 
REMARK   11  A    between atoms: C_30  and  O_31 
ROOT
HETATM    1  C   LIG     1     -10.617 -30.134  -4.755  1.00  0.00     0.054 A 
HETATM    2  C   LIG     1     -10.004 -29.481  -5.826  1.00  0.00    -0.048 A 
HETATM    3  C   LIG     1      -8.694 -29.804  -6.200  1.00  0.00    -0.037 A 
HETATM    4  C   LIG     1      -8.059 -30.806  -5.472  1.00  0.00     0.008 A 
HETATM    5  N   LIG     1      -8.624 -31.468  -4.436  1.00  0.00    -0.270 NA
HETATM    6  C   LIG     1      -9.887 -31.113  -4.092  1.00  0.00     0.028 A 
HETATM    7  H   LIG     1     -10.527 -28.677  -6.336  1.00  0.00     0.087 H 
HETATM    8  H   LIG     1      -7.040 -31.113  -5.700  1.00  0.00     0.115 H 
HETATM    9  H   LIG     1     -10.309 -31.688  -3.273  1.00  0.00     0.118 H 
ENDROOT
BRANCH   1  10
HETATM   10  N   LIG     1     -11.949 -29.800  -4.447  1.00  0.00    -0.307 N 
HETATM   11  C   LIG     1     -12.350 -29.246  -3.240  1.00  0.00     0.325 C 
HETATM   12  N   LIG     1     -13.721 -29.069  -3.245  1.00  0.00    -0.309 N 
HETATM   13  O   LIG     1     -11.597 -28.961  -2.321  1.00  0.00    -0.247 OA
HETATM   14  H   LIG     1     -14.197 -29.865  -3.642  1.00  0.00     0.170 HD
HETATM   15  H   LIG     1     -12.524 -29.497  -5.218  1.00  0.00     0.170 HD
BRANCH  12  16
HETATM   16  C   LIG     1     -14.434 -28.369  -2.246  1.00  0.00     0.036 A 
HETATM   17  C   LIG     1     -14.711 -29.055  -1.064  1.00  0.00    -0.057 A 
HETATM   18  C   LIG     1     -15.465 -28.448  -0.066  1.00  0.00    -0.080 A 
HETATM   19  H   LIG     1     -14.310 -30.048  -0.884  1.00  0.00     0.086 H 
HETATM   20  C   LIG     1     -16.000 -27.176  -0.270  1.00  0.00    -0.076 A 
HETATM   21  H   LIG     1     -15.653 -28.964   0.870  1.00  0.00     0.083 H 
HETATM   22  C   LIG     1     -15.759 -26.463  -1.454  1.00  0.00    -0.052 A 
HETATM   23  H   LIG     1     -16.617 -26.759   0.522  1.00  0.00     0.084 H 
HETATM   24  C   LIG     1     -14.944 -27.072  -2.437  1.00  0.00    -0.051 A 
HETATM   25  H   LIG     1     -14.748 -26.551  -3.371  1.00  0.00     0.087 H 
BRANCH  22  26
HETATM   26  C   LIG     1     -16.374 -25.088  -1.713  1.00  0.00    -0.017 C 
HETATM   27  H   LIG     1     -16.551 -24.983  -2.790  1.00  0.00     0.047 H 
HETATM   28  H   LIG     1     -17.358 -25.053  -1.227  1.00  0.00     0.047 H 
BRANCH  26  29
HETATM   29  C   LIG     1     -15.573 -23.873  -1.247  1.00  0.00    -0.054 A 
HETATM   30  C   LIG     1     -16.102 -22.579  -1.388  1.00  0.00    -0.075 A 
HETATM   31  C   LIG     1     -15.319 -21.450  -1.116  1.00  0.00    -0.060 A 
HETATM   32  H   LIG     1     -17.120 -22.449  -1.752  1.00  0.00     0.084 H 
HETATM   33  C   LIG     1     -13.998 -21.614  -0.687  1.00  0.00     0.074 A 
HETATM   34  H   LIG     1     -15.756 -20.470  -1.287  1.00  0.00     0.085 H 
HETATM   35  C   LIG     1     -13.479 -22.889  -0.477  1.00  0.00    -0.060 A 
HETATM   36  C   LIG     1     -14.264 -24.013  -0.753  1.00  0.00    -0.075 A 
HETATM   37  H   LIG     1     -12.459 -23.005  -0.131  1.00  0.00     0.085 H 
HETATM   38  H   LIG     1     -13.832 -25.000  -0.616  1.00  0.00     0.084 H 
BRANCH  33  39
HETATM   39  S   LIG     1     -12.909 -20.221  -0.516  1.00  0.00     0.239 S 
HETATM   40  O   LIG     1     -12.744 -19.956   0.888  1.00  0.00    -0.206 OA
HETATM   41  O   LIG     1     -13.358 -19.184  -1.430  1.00  0.00    -0.206 OA
BRANCH  39  42
HETATM   42  N   LIG     1     -11.445 -20.785  -1.145  1.00  0.00    -0.225 NA
HETATM   43  H   LIG     1     -10.678 -20.824  -0.474  1.00  0.00     0.136 HD
HETATM   44  H   LIG     1     -11.205 -20.293  -2.019  1.00  0.00     0.136 HD
ENDBRANCH  39  42
ENDBRANCH  33  39
ENDBRANCH  26  29
ENDBRANCH  22  26
ENDBRANCH  12  16
ENDBRANCH   1  10
BRANCH   3  45
HETATM   45  C   LIG     1      -7.978 -29.054  -7.294  1.00  0.00    -0.025 C 
HETATM   46  H   LIG     1      -6.899 -29.033  -7.089  1.00  0.00     0.042 H 
HETATM   47  H   LIG     1      -8.311 -28.008  -7.244  1.00  0.00     0.042 H 
BRANCH  45  48
HETATM   48  C   LIG     1      -8.222 -29.576  -8.719  1.00  0.00    -0.001 C 
HETATM   49  H   LIG     1      -7.264 -29.594  -9.250  1.00  0.00     0.064 H 
HETATM   50  H   LIG     1      -8.886 -28.902  -9.269  1.00  0.00     0.064 H 
BRANCH  48  51
HETATM   51  N   LIG     1      -8.759 -30.932  -8.783  1.00  0.00    -0.360 N 
HETATM   52  C   LIG     1      -9.857 -31.234  -9.567  1.00  0.00     0.221 C 
HETATM   53  O   LIG     1     -10.448 -30.372 -10.218  1.00  0.00    -0.273 OA
HETATM   54  H   LIG     1      -8.158 -31.691  -8.488  1.00  0.00     0.162 HD
BRANCH  52  55
HETATM   55  C   LIG     1     -10.357 -32.692  -9.472  1.00  0.00     0.024 C 
HETATM   56  C   LIG     1      -9.344 -33.636  -8.807  1.00  0.00    -0.051 C 
HETATM   57  C   LIG     1      -9.364 -33.698  -7.274  1.00  0.00    -0.040 C 
HETATM   58  H   LIG     1      -8.322 -33.391  -9.128  1.00  0.00     0.034 H 
HETATM   59  H   LIG     1      -9.533 -34.649  -9.186  1.00  0.00     0.034 H 
HETATM   60  C   LIG     1     -10.732 -33.566  -6.600  1.00  0.00     0.035 C 
HETATM   61  H   LIG     1      -8.713 -32.906  -6.889  1.00  0.00     0.036 H 
HETATM   62  H   LIG     1      -8.906 -34.648  -6.973  1.00  0.00     0.036 H 
HETATM   63  C   LIG     1     -11.730 -32.676  -7.331  1.00  0.00    -0.040 C 
HETATM   64  H   LIG     1     -10.589 -33.164  -5.587  1.00  0.00     0.082 H 
HETATM   65  C   LIG     1     -11.737 -32.884  -8.843  1.00  0.00    -0.051 C 
HETATM   66  H   LIG     1     -11.515 -31.624  -7.115  1.00  0.00     0.036 H 
HETATM   67  H   LIG     1     -12.744 -32.883  -6.958  1.00  0.00     0.036 H 
HETATM   68  H   LIG     1     -12.480 -32.219  -9.293  1.00  0.00     0.034 H 
HETATM   69  H   LIG     1     -12.076 -33.907  -9.057  1.00  0.00     0.034 H 
HETATM   70  H   LIG     1     -10.431 -33.004 -10.523  1.00  0.00     0.054 H 
BRANCH  60  71
HETATM   71  O   LIG     1     -11.324 -34.856  -6.448  1.00  0.00    -0.396 OA
HETATM   72  H   LIG     1     -11.249 -35.089  -5.505  1.00  0.00     0.210 HD
ENDBRANCH  60  71
ENDBRANCH  52  55
ENDBRANCH  48  51
ENDBRANCH  45  48
ENDBRANCH   3  45
TORSDOF 11
ENDMDL
MODEL 5
REMARK minimizedAffinity -4.52690315
REMARK minimizedRMSD -1
REMARK  11 active torsions:
REMARK  status: ('A' for Active; 'I' for Inactive)
REMARK    1  A    between atoms: N_1  and  S_2 
REMARK    2  A    between atoms: S_2  and  C_5 
REMARK    3  A    between atoms: C_8  and  C_9 
REMARK    4  A    between atoms: C_9  and  C_10 
REMARK    5  A    between atoms: C_14  and  N_15 
REMARK       I    between atoms: N_15  and  C_16 
REMARK       I    between atoms: C_16  and  N_18 
REMARK    6  A    between atoms: N_18  and  C_19 
REMARK    7  A    between atoms: C_21  and  C_22 
REMARK    8  A    between atoms: C_22  and  C_23 
REMARK    9  A    between atoms: C_23  and  N_24 
REMARK       I    between atoms: N_24  and  C_25 
REMARK   10  A    between atoms: C_25  and  C_27 
REMARK   11  A    between atoms: C_30  and  O_31 
ROOT
HETATM    1  C   LIG     1      -8.270 -29.714  -5.158  1.00  0.00     0.054 A 
HETATM    2  C   LIG     1      -7.348 -29.076  -4.325  1.00  0.00    -0.048 A 
HETATM    3  C   LIG     1      -5.977 -29.320  -4.464  1.00  0.00    -0.037 A 
HETATM    4  C   LIG     1      -5.591 -30.201  -5.471  1.00  0.00     0.008 A 
HETATM    5  N   LIG     1      -6.453 -30.829  -6.303  1.00  0.00    -0.270 NA
HETATM    6  C   LIG     1      -7.775 -30.581  -6.124  1.00  0.00     0.028 A 
HETATM    7  H   LIG     1      -7.702 -28.429  -3.528  1.00  0.00     0.087 H 
HETATM    8  H   LIG     1      -4.545 -30.444  -5.640  1.00  0.00     0.115 H 
HETATM    9  H   LIG     1      -8.428 -31.086  -6.830  1.00  0.00     0.118 H 
ENDROOT
BRANCH   1  10
HETATM   10  N   LIG     1      -9.633 -29.401  -5.003  1.00  0.00    -0.307 N 
HETATM   11  C   LIG     1     -10.538 -30.200  -4.319  1.00  0.00     0.325 C 
HETATM   12  N   LIG     1     -11.796 -29.628  -4.379  1.00  0.00    -0.309 N 
HETATM   13  O   LIG     1     -10.256 -31.246  -3.755  1.00  0.00    -0.247 OA
HETATM   14  H   LIG     1     -12.000 -29.273  -5.301  1.00  0.00     0.170 HD
HETATM   15  H   LIG     1      -9.864 -28.421  -4.942  1.00  0.00     0.170 HD
BRANCH  12  16
HETATM   16  C   LIG     1     -12.912 -30.088  -3.644  1.00  0.00     0.036 A 
HETATM   17  C   LIG     1     -13.633 -31.153  -4.181  1.00  0.00    -0.057 A 
HETATM   18  C   LIG     1     -14.779 -31.612  -3.542  1.00  0.00    -0.080 A 
HETATM   19  H   LIG     1     -13.292 -31.668  -5.074  1.00  0.00     0.086 H 
HETATM   20  C   LIG     1     -15.247 -30.968  -2.397  1.00  0.00    -0.076 A 
HETATM   21  H   LIG     1     -15.324 -32.464  -3.937  1.00  0.00     0.083 H 
HETATM   22  C   LIG     1     -14.559 -29.880  -1.838  1.00  0.00    -0.052 A 
HETATM   23  H   LIG     1     -16.170 -31.336  -1.956  1.00  0.00     0.084 H 
HETATM   24  C   LIG     1     -13.364 -29.460  -2.469  1.00  0.00    -0.051 A 
HETATM   25  H   LIG     1     -12.814 -28.613  -2.067  1.00  0.00     0.087 H 
BRANCH  22  26
HETATM   26  C   LIG     1     -15.081 -29.134  -0.610  1.00  0.00    -0.017 C 
HETATM   27  H   LIG     1     -16.066 -29.540  -0.350  1.00  0.00     0.047 H 
HETATM   28  H   LIG     1     -14.416 -29.352   0.235  1.00  0.00     0.047 H 
BRANCH  26  29
HETATM   29  C   LIG     1     -15.214 -27.616  -0.729  1.00  0.00    -0.054 A 
HETATM   30  C   LIG     1     -15.473 -27.023  -1.976  1.00  0.00    -0.075 A 
HETATM   31  C   LIG     1     -15.438 -25.632  -2.130  1.00  0.00    -0.060 A 
HETATM   32  H   LIG     1     -15.663 -27.653  -2.844  1.00  0.00     0.084 H 
HETATM   33  C   LIG     1     -15.154 -24.822  -1.025  1.00  0.00     0.074 A 
HETATM   34  H   LIG     1     -15.595 -25.222  -3.124  1.00  0.00     0.085 H 
HETATM   35  C   LIG     1     -14.963 -25.390   0.232  1.00  0.00    -0.060 A 
HETATM   36  C   LIG     1     -14.996 -26.779   0.379  1.00  0.00    -0.075 A 
HETATM   37  H   LIG     1     -14.758 -24.753   1.085  1.00  0.00     0.085 H 
HETATM   38  H   LIG     1     -14.811 -27.207   1.361  1.00  0.00     0.084 H 
BRANCH  33  39
HETATM   39  S   LIG     1     -14.909 -23.072  -1.208  1.00  0.00     0.239 S 
HETATM   40  O   LIG     1     -14.813 -22.782  -2.614  1.00  0.00    -0.206 OA
HETATM   41  O   LIG     1     -13.867 -22.663  -0.281  1.00  0.00    -0.206 OA
BRANCH  39  42
HETATM   42  N   LIG     1     -16.344 -22.409  -0.607  1.00  0.00    -0.225 NA
HETATM   43  H   LIG     1     -16.895 -21.892  -1.292  1.00  0.00     0.136 HD
HETATM   44  H   LIG     1     -16.171 -21.886   0.264  1.00  0.00     0.136 HD
ENDBRANCH  39  42
ENDBRANCH  33  39
ENDBRANCH  26  29
ENDBRANCH  22  26
ENDBRANCH  12  16
ENDBRANCH   1  10
BRANCH   3  45
HETATM   45  C   LIG     1      -4.968 -28.714  -3.522  1.00  0.00    -0.025 C 
HETATM   46  H   LIG     1      -5.407 -27.848  -3.009  1.00  0.00     0.042 H 
HETATM   47  H   LIG     1      -4.148 -28.313  -4.135  1.00  0.00     0.042 H 
BRANCH  45  48
HETATM   48  C   LIG     1      -4.372 -29.679  -2.484  1.00  0.00    -0.001 C 
HETATM   49  H   LIG     1      -4.841 -29.478  -1.514  1.00  0.00     0.064 H 
HETATM   50  H   LIG     1      -3.298 -29.507  -2.368  1.00  0.00     0.064 H 
BRANCH  48  51
HETATM   51  N   LIG     1      -4.600 -31.092  -2.772  1.00  0.00    -0.360 N 
HETATM   52  C   LIG     1      -5.101 -31.950  -1.811  1.00  0.00     0.221 C 
HETATM   53  O   LIG     1      -5.346 -31.572  -0.666  1.00  0.00    -0.273 OA
HETATM   54  H   LIG     1      -4.665 -31.369  -3.744  1.00  0.00     0.162 HD
BRANCH  52  55
HETATM   55  C   LIG     1      -5.214 -33.430  -2.240  1.00  0.00     0.024 C 
HETATM   56  C   LIG     1      -5.888 -34.316  -1.181  1.00  0.00    -0.051 C 
HETATM   57  C   LIG     1      -7.422 -34.361  -1.197  1.00  0.00    -0.040 C 
HETATM   58  H   LIG     1      -5.563 -34.026  -0.173  1.00  0.00     0.034 H 
HETATM   59  H   LIG     1      -5.521 -35.341  -1.322  1.00  0.00     0.034 H 
HETATM   60  C   LIG     1      -8.097 -34.286  -2.569  1.00  0.00     0.035 C 
HETATM   61  H   LIG     1      -7.796 -33.533  -0.585  1.00  0.00     0.036 H 
HETATM   62  H   LIG     1      -7.733 -35.284  -0.694  1.00  0.00     0.036 H 
HETATM   63  C   LIG     1      -7.357 -33.455  -3.610  1.00  0.00    -0.040 C 
HETATM   64  H   LIG     1      -9.105 -33.866  -2.445  1.00  0.00     0.082 H 
HETATM   65  C   LIG     1      -5.847 -33.680  -3.608  1.00  0.00    -0.051 C 
HETATM   66  H   LIG     1      -7.560 -32.391  -3.446  1.00  0.00     0.036 H 
HETATM   67  H   LIG     1      -7.734 -33.706  -4.612  1.00  0.00     0.036 H 
HETATM   68  H   LIG     1      -5.391 -33.058  -4.383  1.00  0.00     0.034 H 
HETATM   69  H   LIG     1      -5.646 -34.721  -3.898  1.00  0.00     0.034 H 
HETATM   70  H   LIG     1      -4.167 -33.757  -2.300  1.00  0.00     0.054 H 
BRANCH  60  71
HETATM   71  O   LIG     1      -8.265 -35.602  -3.098  1.00  0.00    -0.396 OA
HETATM   72  H   LIG     1      -9.210 -35.819  -3.011  1.00  0.00     0.210 HD
ENDBRANCH  60  71
ENDBRANCH  52  55
ENDBRANCH  48  51
ENDBRANCH  45  48
ENDBRANCH   3  45
TORSDOF 11
ENDMDL
MODEL 6
REMARK minimizedAffinity -3.98354268
REMARK minimizedRMSD -1
REMARK  11 active torsions:
REMARK  status: ('A' for Active; 'I' for Inactive)
REMARK    1  A    between atoms: N_1  and  S_2 
REMARK    2  A    between atoms: S_2  and  C_5 
REMARK    3  A    between atoms: C_8  and  C_9 
REMARK    4  A    between atoms: C_9  and  C_10 
REMARK    5  A    between atoms: C_14  and  N_15 
REMARK       I    between atoms: N_15  and  C_16 
REMARK       I    between atoms: C_16  and  N_18 
REMARK    6  A    between atoms: N_18  and  C_19 
REMARK    7  A    between atoms: C_21  and  C_22 
REMARK    8  A    between atoms: C_22  and  C_23 
REMARK    9  A    between atoms: C_23  and  N_24 
REMARK       I    between atoms: N_24  and  C_25 
REMARK   10  A    between atoms: C_25  and  C_27 
REMARK   11  A    between atoms: C_30  and  O_31 
ROOT
HETATM    1  C   LIG     1      -8.120 -30.443  -5.024  1.00  0.00     0.054 A 
HETATM    2  C   LIG     1      -7.284 -29.754  -4.143  1.00  0.00    -0.048 A 
HETATM    3  C   LIG     1      -5.906 -29.998  -4.133  1.00  0.00    -0.037 A 
HETATM    4  C   LIG     1      -5.424 -30.933  -5.045  1.00  0.00     0.008 A 
HETATM    5  N   LIG     1      -6.201 -31.612  -5.920  1.00  0.00    -0.270 NA
HETATM    6  C   LIG     1      -7.534 -31.361  -5.886  1.00  0.00     0.028 A 
HETATM    7  H   LIG     1      -7.713 -29.064  -3.422  1.00  0.00     0.087 H 
HETATM    8  H   LIG     1      -4.366 -31.180  -5.097  1.00  0.00     0.115 H 
HETATM    9  H   LIG     1      -8.114 -31.909  -6.622  1.00  0.00     0.118 H 
ENDROOT
BRANCH   1  10
HETATM   10  N   LIG     1      -9.492 -30.128  -5.022  1.00  0.00    -0.307 N 
HETATM   11  C   LIG     1     -10.424 -30.737  -4.194  1.00  0.00     0.325 C 
HETATM   12  N   LIG     1     -11.681 -30.228  -4.461  1.00  0.00    -0.309 N 
HETATM   13  O   LIG     1     -10.163 -31.591  -3.361  1.00  0.00    -0.247 OA
HETATM   14  H   LIG     1     -11.841 -30.133  -5.454  1.00  0.00     0.170 HD
HETATM   15  H   LIG     1      -9.732 -29.172  -5.233  1.00  0.00     0.170 HD
BRANCH  12  16
HETATM   16  C   LIG     1     -12.829 -30.500  -3.684  1.00  0.00     0.036 A 
HETATM   17  C   LIG     1     -13.742 -31.420  -4.198  1.00  0.00    -0.057 A 
HETATM   18  C   LIG     1     -14.924 -31.685  -3.516  1.00  0.00    -0.080 A 
HETATM   19  H   LIG     1     -13.530 -31.972  -5.109  1.00  0.00     0.086 H 
HETATM   20  C   LIG     1     -15.230 -30.986  -2.348  1.00  0.00    -0.076 A 
HETATM   21  H   LIG     1     -15.622 -32.426  -3.894  1.00  0.00     0.083 H 
HETATM   22  C   LIG     1     -14.344 -30.039  -1.811  1.00  0.00    -0.052 A 
HETATM   23  H   LIG     1     -16.184 -31.198  -1.872  1.00  0.00     0.084 H 
HETATM   24  C   LIG     1     -13.121 -29.821  -2.488  1.00  0.00    -0.051 A 
HETATM   25  H   LIG     1     -12.419 -29.085  -2.103  1.00  0.00     0.087 H 
BRANCH  22  26
HETATM   26  C   LIG     1     -14.683 -29.232  -0.558  1.00  0.00    -0.017 C 
HETATM   27  H   LIG     1     -15.532 -29.710  -0.055  1.00  0.00     0.047 H 
HETATM   28  H   LIG     1     -13.832 -29.294   0.133  1.00  0.00     0.047 H 
BRANCH  26  29
HETATM   29  C   LIG     1     -15.024 -27.756  -0.758  1.00  0.00    -0.054 A 
HETATM   30  C   LIG     1     -15.346 -27.271  -2.037  1.00  0.00    -0.075 A 
HETATM   31  C   LIG     1     -15.503 -25.898  -2.264  1.00  0.00    -0.060 A 
HETATM   32  H   LIG     1     -15.436 -27.965  -2.871  1.00  0.00     0.084 H 
HETATM   33  C   LIG     1     -15.350 -25.001  -1.202  1.00  0.00     0.074 A 
HETATM   34  H   LIG     1     -15.703 -25.567  -3.280  1.00  0.00     0.085 H 
HETATM   35  C   LIG     1     -15.098 -25.469   0.084  1.00  0.00    -0.060 A 
HETATM   36  C   LIG     1     -14.939 -26.841   0.305  1.00  0.00    -0.075 A 
HETATM   37  H   LIG     1     -14.995 -24.767   0.903  1.00  0.00     0.085 H 
HETATM   38  H   LIG     1     -14.709 -27.186   1.309  1.00  0.00     0.084 H 
BRANCH  33  39
HETATM   39  S   LIG     1     -15.348 -23.245  -1.478  1.00  0.00     0.239 S 
HETATM   40  O   LIG     1     -16.697 -22.771  -1.322  1.00  0.00    -0.206 OA
HETATM   41  O   LIG     1     -14.591 -22.980  -2.689  1.00  0.00    -0.206 OA
BRANCH  39  42
HETATM   42  N   LIG     1     -14.406 -22.649  -0.207  1.00  0.00    -0.225 NA
HETATM   43  H   LIG     1     -14.901 -22.036   0.441  1.00  0.00     0.136 HD
HETATM   44  H   LIG     1     -13.523 -22.250  -0.559  1.00  0.00     0.136 HD
ENDBRANCH  39  42
ENDBRANCH  33  39
ENDBRANCH  26  29
ENDBRANCH  22  26
ENDBRANCH  12  16
ENDBRANCH   1  10
BRANCH   3  45
HETATM   45  C   LIG     1      -4.994 -29.334  -3.133  1.00  0.00    -0.025 C 
HETATM   46  H   LIG     1      -4.042 -29.879  -3.075  1.00  0.00     0.042 H 
HETATM   47  H   LIG     1      -5.460 -29.441  -2.143  1.00  0.00     0.042 H 
BRANCH  45  48
HETATM   48  C   LIG     1      -4.718 -27.842  -3.382  1.00  0.00    -0.001 C 
HETATM   49  H   LIG     1      -3.684 -27.627  -3.090  1.00  0.00     0.064 H 
HETATM   50  H   LIG     1      -5.369 -27.220  -2.759  1.00  0.00     0.064 H 
BRANCH  48  51
HETATM   51  N   LIG     1      -4.853 -27.426  -4.775  1.00  0.00    -0.360 N 
HETATM   52  C   LIG     1      -5.821 -26.519  -5.164  1.00  0.00     0.221 C 
HETATM   53  O   LIG     1      -6.629 -26.047  -4.364  1.00  0.00    -0.273 OA
HETATM   54  H   LIG     1      -4.063 -27.578  -5.389  1.00  0.00     0.162 HD
BRANCH  52  55
HETATM   55  C   LIG     1      -5.891 -26.237  -6.681  1.00  0.00     0.024 C 
HETATM   56  C   LIG     1      -5.109 -27.256  -7.523  1.00  0.00    -0.051 C 
HETATM   57  C   LIG     1      -5.844 -28.552  -7.893  1.00  0.00    -0.040 C 
HETATM   58  H   LIG     1      -4.168 -27.525  -7.024  1.00  0.00     0.034 H 
HETATM   59  H   LIG     1      -4.812 -26.761  -8.456  1.00  0.00     0.034 H 
HETATM   60  C   LIG     1      -7.346 -28.434  -8.167  1.00  0.00     0.035 C 
HETATM   61  H   LIG     1      -5.698 -29.273  -7.081  1.00  0.00     0.036 H 
HETATM   62  H   LIG     1      -5.350 -28.974  -8.776  1.00  0.00     0.036 H 
HETATM   63  C   LIG     1      -8.068 -27.362  -7.361  1.00  0.00    -0.040 C 
HETATM   64  H   LIG     1      -7.820 -29.403  -7.956  1.00  0.00     0.082 H 
HETATM   65  C   LIG     1      -7.294 -26.051  -7.260  1.00  0.00    -0.051 C 
HETATM   66  H   LIG     1      -8.276 -27.734  -6.353  1.00  0.00     0.036 H 
HETATM   67  H   LIG     1      -9.039 -27.144  -7.833  1.00  0.00     0.036 H 
HETATM   68  H   LIG     1      -7.878 -25.333  -6.677  1.00  0.00     0.034 H 
HETATM   69  H   LIG     1      -7.198 -25.618  -8.265  1.00  0.00     0.034 H 
HETATM   70  H   LIG     1      -5.365 -25.277  -6.785  1.00  0.00     0.054 H 
BRANCH  60  71
HETATM   71  O   LIG     1      -7.565 -28.165  -9.552  1.00  0.00    -0.396 OA
HETATM   72  H   LIG     1      -7.892 -28.992  -9.949  1.00  0.00     0.210 HD
ENDBRANCH  60  71
ENDBRANCH  52  55
ENDBRANCH  48  51
ENDBRANCH  45  48
ENDBRANCH   3  45
TORSDOF 11
ENDMDL
