MODEL 1
REMARK minimizedAffinity -7.06237698
REMARK minimizedRMSD -1
REMARK  11 active torsions:
REMARK  status: ('A' for Active; 'I' for Inactive)
REMARK    1  A    between atoms: N_1  and  S_2 
REMARK    2  A    between atoms: S_2  and  C_5 
REMARK    3  A    between atoms: C_8  and  C_9 
REMARK    4  A    between atoms: C_9  and  C_10 
REMARK    5  A    between atoms: C_14  and  N_15 
REMARK       I    between atoms: N_15  and  C_16 
REMARK       I    between atoms: C_16  and  N_18 
REMARK    6  A    between atoms: N_18  and  C_19 
REMARK    7  A    between atoms: C_20  and  C_21 
REMARK    8  A    between atoms: C_21  and  C_22 
REMARK    9  A    between atoms: C_22  and  N_23 
REMARK       I    between atoms: N_23  and  C_24 
REMARK   10  A    between atoms: C_24  and  C_26 
REMARK   11  A    between atoms: C_29  and  O_30 
ROOT
HETATM    1  C   LIG     1     -14.182 -28.267  -2.137  1.00  0.00     0.057 C 
HETATM    2  C   LIG     1     -13.430 -28.476  -3.241  1.00  0.00    -0.041 C 
HETATM    3  C   LIG     1     -13.269 -29.888  -3.781  1.00  0.00     0.034 C 
HETATM    4  C   LIG     1     -14.433 -30.774  -3.380  1.00  0.00     0.246 C 
HETATM    5  O   LIG     1     -14.927 -31.554  -4.189  1.00  0.00    -0.271 OA
HETATM    6  N   LIG     1     -14.815 -30.688  -2.067  1.00  0.00    -0.224 NA
HETATM    7  C   LIG     1     -14.684 -29.529  -1.500  1.00  0.00     0.032 C 
HETATM    8  H   LIG     1     -12.327 -30.329  -3.449  1.00  0.00     0.054 H 
HETATM    9  H   LIG     1     -13.284 -29.908  -4.874  1.00  0.00     0.054 H 
HETATM   10  H   LIG     1     -14.900 -29.479  -0.423  1.00  0.00     0.118 H 
ENDROOT
BRANCH   1  11
HETATM   11  N   LIG     1     -14.394 -27.012  -1.600  1.00  0.00    -0.307 N 
HETATM   12  C   LIG     1     -15.321 -26.045  -1.976  1.00  0.00     0.325 C 
HETATM   13  N   LIG     1     -15.164 -24.911  -1.184  1.00  0.00    -0.309 N 
HETATM   14  O   LIG     1     -16.122 -26.189  -2.890  1.00  0.00    -0.247 OA
HETATM   15  H   LIG     1     -14.606 -25.015  -0.351  1.00  0.00     0.170 HD
HETATM   16  H   LIG     1     -13.725 -26.689  -0.922  1.00  0.00     0.170 HD
BRANCH  13  17
HETATM   17  C   LIG     1     -15.846 -23.678  -1.256  1.00  0.00     0.036 A 
HETATM   18  C   LIG     1     -17.117 -23.457  -0.732  1.00  0.00    -0.057 A 
HETATM   19  C   LIG     1     -17.669 -22.174  -0.756  1.00  0.00    -0.080 A 
HETATM   20  H   LIG     1     -17.685 -24.253  -0.262  1.00  0.00     0.086 H 
HETATM   21  C   LIG     1     -16.972 -21.111  -1.334  1.00  0.00    -0.076 A 
HETATM   22  H   LIG     1     -18.641 -22.001  -0.299  1.00  0.00     0.083 H 
HETATM   23  C   LIG     1     -15.707 -21.315  -1.898  1.00  0.00    -0.052 A 
HETATM   24  H   LIG     1     -17.419 -20.119  -1.325  1.00  0.00     0.084 H 
HETATM   25  C   LIG     1     -15.157 -22.606  -1.854  1.00  0.00    -0.051 A 
HETATM   26  H   LIG     1     -14.175 -22.766  -2.293  1.00  0.00     0.087 H 
BRANCH  23  27
HETATM   27  C   LIG     1     -14.926 -20.162  -2.497  1.00  0.00    -0.017 C 
HETATM   28  H   LIG     1     -14.547 -20.471  -3.481  1.00  0.00     0.047 H 
HETATM   29  H   LIG     1     -15.598 -19.319  -2.704  1.00  0.00     0.047 H 
BRANCH  27  30
HETATM   30  C   LIG     1     -13.779 -19.670  -1.635  1.00  0.00    -0.054 A 
HETATM   31  C   LIG     1     -12.924 -18.656  -2.098  1.00  0.00    -0.075 A 
HETATM   32  C   LIG     1     -11.863 -18.199  -1.314  1.00  0.00    -0.060 A 
HETATM   33  H   LIG     1     -13.081 -18.207  -3.076  1.00  0.00     0.084 H 
HETATM   34  C   LIG     1     -11.641 -18.766  -0.059  1.00  0.00     0.074 A 
HETATM   35  H   LIG     1     -11.226 -17.400  -1.689  1.00  0.00     0.085 H 
HETATM   36  C   LIG     1     -12.473 -19.783   0.418  1.00  0.00    -0.060 A 
HETATM   37  C   LIG     1     -13.537 -20.235  -0.373  1.00  0.00    -0.075 A 
HETATM   38  H   LIG     1     -12.301 -20.222   1.397  1.00  0.00     0.085 H 
HETATM   39  H   LIG     1     -14.172 -21.033   0.007  1.00  0.00     0.084 H 
BRANCH  34  40
HETATM   40  S   LIG     1     -10.314 -18.182   0.955  1.00  0.00     0.239 S 
HETATM   41  O   LIG     1      -9.525 -17.258   0.199  1.00  0.00    -0.206 OA
HETATM   42  O   LIG     1      -9.733 -19.305   1.678  1.00  0.00    -0.206 OA
BRANCH  40  43
HETATM   43  N   LIG     1     -11.116 -17.285   2.127  1.00  0.00    -0.225 NA
HETATM   44  H   LIG     1     -10.792 -16.319   2.091  1.00  0.00     0.136 HD
HETATM   45  H   LIG     1     -10.998 -17.726   3.039  1.00  0.00     0.136 HD
ENDBRANCH  40  43
ENDBRANCH  34  40
ENDBRANCH  27  30
ENDBRANCH  23  27
ENDBRANCH  13  17
ENDBRANCH   1  11
BRANCH   2  46
HETATM   46  C   LIG     1     -12.688 -27.385  -3.995  1.00  0.00    -0.027 C 
HETATM   47  H   LIG     1     -13.367 -26.532  -4.118  1.00  0.00     0.042 H 
HETATM   48  H   LIG     1     -12.418 -27.731  -4.999  1.00  0.00     0.042 H 
BRANCH  46  49
HETATM   49  C   LIG     1     -11.398 -26.898  -3.328  1.00  0.00    -0.001 C 
HETATM   50  H   LIG     1     -10.618 -26.701  -4.075  1.00  0.00     0.064 H 
HETATM   51  H   LIG     1     -10.999 -27.677  -2.672  1.00  0.00     0.064 H 
BRANCH  49  52
HETATM   52  N   LIG     1     -11.626 -25.686  -2.557  1.00  0.00    -0.360 N 
HETATM   53  C   LIG     1     -11.442 -24.446  -3.115  1.00  0.00     0.221 C 
HETATM   54  O   LIG     1     -10.992 -24.307  -4.247  1.00  0.00    -0.273 OA
HETATM   55  H   LIG     1     -12.130 -25.747  -1.680  1.00  0.00     0.162 HD
BRANCH  53  56
HETATM   56  C   LIG     1     -11.747 -23.269  -2.179  1.00  0.00     0.024 C 
HETATM   57  C   LIG     1     -11.551 -23.687  -0.713  1.00  0.00    -0.051 C 
HETATM   58  C   LIG     1     -10.075 -23.802  -0.317  1.00  0.00    -0.040 C 
HETATM   59  H   LIG     1     -12.047 -24.647  -0.521  1.00  0.00     0.034 H 
HETATM   60  H   LIG     1     -12.045 -22.956  -0.062  1.00  0.00     0.034 H 
HETATM   61  C   LIG     1      -9.264 -22.557  -0.675  1.00  0.00     0.035 C 
HETATM   62  H   LIG     1      -9.628 -24.673  -0.812  1.00  0.00     0.036 H 
HETATM   63  H   LIG     1     -10.019 -23.985   0.762  1.00  0.00     0.036 H 
HETATM   64  C   LIG     1      -9.471 -22.125  -2.128  1.00  0.00    -0.040 C 
HETATM   65  H   LIG     1      -8.200 -22.765  -0.517  1.00  0.00     0.082 H 
HETATM   66  C   LIG     1     -10.948 -21.998  -2.500  1.00  0.00    -0.051 C 
HETATM   67  H   LIG     1      -8.995 -22.851  -2.798  1.00  0.00     0.036 H 
HETATM   68  H   LIG     1      -8.984 -21.157  -2.298  1.00  0.00     0.036 H 
HETATM   69  H   LIG     1     -11.023 -21.726  -3.558  1.00  0.00     0.034 H 
HETATM   70  H   LIG     1     -11.386 -21.155  -1.948  1.00  0.00     0.034 H 
HETATM   71  H   LIG     1     -12.814 -23.048  -2.326  1.00  0.00     0.054 H 
BRANCH  61  72
HETATM   72  O   LIG     1      -9.601 -21.488   0.211  1.00  0.00    -0.396 OA
HETATM   73  H   LIG     1     -10.555 -21.324   0.135  1.00  0.00     0.210 HD
ENDBRANCH  61  72
ENDBRANCH  53  56
ENDBRANCH  49  52
ENDBRANCH  46  49
ENDBRANCH   2  46
TORSDOF 11
ENDMDL
MODEL 2
REMARK minimizedAffinity -6.64348364
REMARK minimizedRMSD -1
REMARK  11 active torsions:
REMARK  status: ('A' for Active; 'I' for Inactive)
REMARK    1  A    between atoms: N_1  and  S_2 
REMARK    2  A    between atoms: S_2  and  C_5 
REMARK    3  A    between atoms: C_8  and  C_9 
REMARK    4  A    between atoms: C_9  and  C_10 
REMARK    5  A    between atoms: C_14  and  N_15 
REMARK       I    between atoms: N_15  and  C_16 
REMARK       I    between atoms: C_16  and  N_18 
REMARK    6  A    between atoms: N_18  and  C_19 
REMARK    7  A    between atoms: C_20  and  C_21 
REMARK    8  A    between atoms: C_21  and  C_22 
REMARK    9  A    between atoms: C_22  and  N_23 
REMARK       I    between atoms: N_23  and  C_24 
REMARK   10  A    between atoms: C_24  and  C_26 
REMARK   11  A    between atoms: C_29  and  O_30 
ROOT
HETATM    1  C   LIG     1      -9.178 -31.910  -2.992  1.00  0.00     0.057 C 
HETATM    2  C   LIG     1      -8.306 -31.348  -3.857  1.00  0.00    -0.041 C 
HETATM    3  C   LIG     1      -7.459 -32.239  -4.753  1.00  0.00     0.034 C 
HETATM    4  C   LIG     1      -8.120 -33.583  -4.986  1.00  0.00     0.246 C 
HETATM    5  O   LIG     1      -8.114 -34.093  -6.103  1.00  0.00    -0.271 OA
HETATM    6  N   LIG     1      -8.632 -34.190  -3.869  1.00  0.00    -0.224 NA
HETATM    7  C   LIG     1      -9.107 -33.408  -2.950  1.00  0.00     0.032 C 
HETATM    8  H   LIG     1      -6.460 -32.376  -4.336  1.00  0.00     0.054 H 
HETATM    9  H   LIG     1      -7.350 -31.819  -5.756  1.00  0.00     0.054 H 
HETATM   10  H   LIG     1      -9.432 -33.886  -2.015  1.00  0.00     0.118 H 
ENDROOT
BRANCH   1  11
HETATM   11  N   LIG     1      -9.997 -31.168  -2.163  1.00  0.00    -0.307 N 
HETATM   12  C   LIG     1     -11.354 -30.889  -2.297  1.00  0.00     0.325 C 
HETATM   13  N   LIG     1     -11.770 -30.074  -1.247  1.00  0.00    -0.309 N 
HETATM   14  O   LIG     1     -12.043 -31.290  -3.223  1.00  0.00    -0.247 OA
HETATM   15  H   LIG     1     -11.144 -29.994  -0.461  1.00  0.00     0.170 HD
HETATM   16  H   LIG     1      -9.550 -30.658  -1.421  1.00  0.00     0.170 HD
BRANCH  13  17
HETATM   17  C   LIG     1     -13.041 -29.504  -1.017  1.00  0.00     0.036 A 
HETATM   18  C   LIG     1     -14.230 -30.017  -1.527  1.00  0.00    -0.057 A 
HETATM   19  C   LIG     1     -15.451 -29.447  -1.158  1.00  0.00    -0.080 A 
HETATM   20  H   LIG     1     -14.243 -30.884  -2.180  1.00  0.00     0.086 H 
HETATM   21  C   LIG     1     -15.491 -28.341  -0.306  1.00  0.00    -0.076 A 
HETATM   22  H   LIG     1     -16.379 -29.886  -1.521  1.00  0.00     0.083 H 
HETATM   23  C   LIG     1     -14.306 -27.786   0.192  1.00  0.00    -0.052 A 
HETATM   24  H   LIG     1     -16.456 -27.927  -0.023  1.00  0.00     0.084 H 
HETATM   25  C   LIG     1     -13.087 -28.377  -0.175  1.00  0.00    -0.051 A 
HETATM   26  H   LIG     1     -12.165 -27.946   0.210  1.00  0.00     0.087 H 
BRANCH  23  27
HETATM   27  C   LIG     1     -14.338 -26.607   1.145  1.00  0.00    -0.017 C 
HETATM   28  H   LIG     1     -15.388 -26.328   1.318  1.00  0.00     0.047 H 
HETATM   29  H   LIG     1     -13.960 -26.909   2.130  1.00  0.00     0.047 H 
BRANCH  27  30
HETATM   30  C   LIG     1     -13.555 -25.399   0.671  1.00  0.00    -0.054 A 
HETATM   31  C   LIG     1     -14.211 -24.322   0.051  1.00  0.00    -0.075 A 
HETATM   32  C   LIG     1     -13.499 -23.207  -0.392  1.00  0.00    -0.060 A 
HETATM   33  H   LIG     1     -15.290 -24.340  -0.087  1.00  0.00     0.084 H 
HETATM   34  C   LIG     1     -12.113 -23.167  -0.230  1.00  0.00     0.074 A 
HETATM   35  H   LIG     1     -14.032 -22.378  -0.853  1.00  0.00     0.085 H 
HETATM   36  C   LIG     1     -11.438 -24.231   0.374  1.00  0.00    -0.060 A 
HETATM   37  C   LIG     1     -12.160 -25.346   0.819  1.00  0.00    -0.075 A 
HETATM   38  H   LIG     1     -10.359 -24.198   0.503  1.00  0.00     0.085 H 
HETATM   39  H   LIG     1     -11.621 -26.171   1.280  1.00  0.00     0.084 H 
BRANCH  34  40
HETATM   40  S   LIG     1     -11.198 -21.751  -0.767  1.00  0.00     0.239 S 
HETATM   41  O   LIG     1     -11.787 -20.576  -0.199  1.00  0.00    -0.206 OA
HETATM   42  O   LIG     1     -10.908 -21.878  -2.188  1.00  0.00    -0.206 OA
BRANCH  40  43
HETATM   43  N   LIG     1      -9.716 -21.962  -0.004  1.00  0.00    -0.225 NA
HETATM   44  H   LIG     1      -9.537 -21.168   0.610  1.00  0.00     0.136 HD
HETATM   45  H   LIG     1      -8.988 -22.116  -0.702  1.00  0.00     0.136 HD
ENDBRANCH  40  43
ENDBRANCH  34  40
ENDBRANCH  27  30
ENDBRANCH  23  27
ENDBRANCH  13  17
ENDBRANCH   1  11
BRANCH   2  46
HETATM   46  C   LIG     1      -8.075 -29.852  -3.995  1.00  0.00    -0.027 C 
HETATM   47  H   LIG     1      -7.131 -29.700  -4.533  1.00  0.00     0.042 H 
HETATM   48  H   LIG     1      -7.962 -29.391  -3.007  1.00  0.00     0.042 H 
BRANCH  46  49
HETATM   49  C   LIG     1      -9.187 -29.088  -4.720  1.00  0.00    -0.001 C 
HETATM   50  H   LIG     1     -10.018 -29.755  -4.983  1.00  0.00     0.064 H 
HETATM   51  H   LIG     1      -8.810 -28.687  -5.665  1.00  0.00     0.064 H 
BRANCH  49  52
HETATM   52  N   LIG     1      -9.699 -27.999  -3.903  1.00  0.00    -0.360 N 
HETATM   53  C   LIG     1     -11.043 -27.722  -3.851  1.00  0.00     0.221 C 
HETATM   54  O   LIG     1     -11.851 -28.316  -4.558  1.00  0.00    -0.273 OA
HETATM   55  H   LIG     1      -9.098 -27.583  -3.202  1.00  0.00     0.162 HD
BRANCH  53  56
HETATM   56  C   LIG     1     -11.425 -26.560  -2.927  1.00  0.00     0.024 C 
HETATM   57  C   LIG     1     -10.496 -25.359  -3.166  1.00  0.00    -0.051 C 
HETATM   58  C   LIG     1     -10.811 -24.612  -4.468  1.00  0.00    -0.040 C 
HETATM   59  H   LIG     1      -9.449 -25.685  -3.187  1.00  0.00     0.034 H 
HETATM   60  H   LIG     1     -10.580 -24.665  -2.321  1.00  0.00     0.034 H 
HETATM   61  C   LIG     1     -12.286 -24.234  -4.596  1.00  0.00     0.035 C 
HETATM   62  H   LIG     1     -10.525 -25.232  -5.326  1.00  0.00     0.036 H 
HETATM   63  H   LIG     1     -10.190 -23.709  -4.507  1.00  0.00     0.036 H 
HETATM   64  C   LIG     1     -13.215 -25.422  -4.339  1.00  0.00    -0.040 C 
HETATM   65  H   LIG     1     -12.471 -23.854  -5.607  1.00  0.00     0.082 H 
HETATM   66  C   LIG     1     -12.899 -26.144  -3.028  1.00  0.00    -0.051 C 
HETATM   67  H   LIG     1     -13.136 -26.137  -5.168  1.00  0.00     0.036 H 
HETATM   68  H   LIG     1     -14.255 -25.077  -4.304  1.00  0.00     0.036 H 
HETATM   69  H   LIG     1     -13.572 -27.002  -2.928  1.00  0.00     0.034 H 
HETATM   70  H   LIG     1     -13.140 -25.481  -2.187  1.00  0.00     0.034 H 
HETATM   71  H   LIG     1     -11.243 -26.926  -1.906  1.00  0.00     0.054 H 
BRANCH  61  72
HETATM   72  O   LIG     1     -12.592 -23.164  -3.701  1.00  0.00    -0.396 OA
HETATM   73  H   LIG     1     -12.377 -23.455  -2.799  1.00  0.00     0.210 HD
ENDBRANCH  61  72
ENDBRANCH  53  56
ENDBRANCH  49  52
ENDBRANCH  46  49
ENDBRANCH   2  46
TORSDOF 11
ENDMDL
MODEL 3
REMARK minimizedAffinity -6.01316643
REMARK minimizedRMSD -1
REMARK  11 active torsions:
REMARK  status: ('A' for Active; 'I' for Inactive)
REMARK    1  A    between atoms: N_1  and  S_2 
REMARK    2  A    between atoms: S_2  and  C_5 
REMARK    3  A    between atoms: C_8  and  C_9 
REMARK    4  A    between atoms: C_9  and  C_10 
REMARK    5  A    between atoms: C_14  and  N_15 
REMARK       I    between atoms: N_15  and  C_16 
REMARK       I    between atoms: C_16  and  N_18 
REMARK    6  A    between atoms: N_18  and  C_19 
REMARK    7  A    between atoms: C_20  and  C_21 
REMARK    8  A    between atoms: C_21  and  C_22 
REMARK    9  A    between atoms: C_22  and  N_23 
REMARK       I    between atoms: N_23  and  C_24 
REMARK   10  A    between atoms: C_24  and  C_26 
REMARK   11  A    between atoms: C_29  and  O_30 
ROOT
HETATM    1  C   LIG     1      -8.219 -32.065  -2.108  1.00  0.00     0.057 C 
HETATM    2  C   LIG     1      -7.236 -31.743  -2.977  1.00  0.00    -0.041 C 
HETATM    3  C   LIG     1      -6.149 -32.759  -3.290  1.00  0.00     0.034 C 
HETATM    4  C   LIG     1      -6.629 -34.178  -3.058  1.00  0.00     0.246 C 
HETATM    5  O   LIG     1      -6.347 -35.067  -3.856  1.00  0.00    -0.271 OA
HETATM    6  N   LIG     1      -7.309 -34.387  -1.886  1.00  0.00    -0.224 NA
HETATM    7  C   LIG     1      -8.031 -33.401  -1.451  1.00  0.00     0.032 C 
HETATM    8  H   LIG     1      -5.250 -32.563  -2.701  1.00  0.00     0.054 H 
HETATM    9  H   LIG     1      -5.869 -32.742  -4.346  1.00  0.00     0.054 H 
HETATM   10  H   LIG     1      -8.501 -33.531  -0.466  1.00  0.00     0.118 H 
ENDROOT
BRANCH   1  11
HETATM   11  N   LIG     1      -9.253 -31.206  -1.790  1.00  0.00    -0.307 N 
HETATM   12  C   LIG     1     -10.625 -31.409  -1.906  1.00  0.00     0.325 C 
HETATM   13  N   LIG     1     -11.304 -30.262  -1.503  1.00  0.00    -0.309 N 
HETATM   14  O   LIG     1     -11.127 -32.440  -2.329  1.00  0.00    -0.247 OA
HETATM   15  H   LIG     1     -10.769 -29.575  -0.995  1.00  0.00     0.170 HD
HETATM   16  H   LIG     1      -9.002 -30.262  -1.551  1.00  0.00     0.170 HD
BRANCH  13  17
HETATM   17  C   LIG     1     -12.692 -30.005  -1.510  1.00  0.00     0.036 A 
HETATM   18  C   LIG     1     -13.607 -30.681  -2.311  1.00  0.00    -0.057 A 
HETATM   19  C   LIG     1     -14.975 -30.432  -2.172  1.00  0.00    -0.080 A 
HETATM   20  H   LIG     1     -13.291 -31.437  -3.023  1.00  0.00     0.086 H 
HETATM   21  C   LIG     1     -15.435 -29.482  -1.258  1.00  0.00    -0.076 A 
HETATM   22  H   LIG     1     -15.686 -31.002  -2.767  1.00  0.00     0.083 H 
HETATM   23  C   LIG     1     -14.531 -28.763  -0.466  1.00  0.00    -0.052 A 
HETATM   24  H   LIG     1     -16.506 -29.319  -1.160  1.00  0.00     0.084 H 
HETATM   25  C   LIG     1     -13.161 -29.034  -0.605  1.00  0.00    -0.051 A 
HETATM   26  H   LIG     1     -12.458 -28.476   0.010  1.00  0.00     0.087 H 
BRANCH  23  27
HETATM   27  C   LIG     1     -15.021 -27.755   0.554  1.00  0.00    -0.017 C 
HETATM   28  H   LIG     1     -15.991 -28.095   0.943  1.00  0.00     0.047 H 
HETATM   29  H   LIG     1     -14.354 -27.746   1.426  1.00  0.00     0.047 H 
BRANCH  27  30
HETATM   30  C   LIG     1     -15.147 -26.340   0.023  1.00  0.00    -0.054 A 
HETATM   31  C   LIG     1     -16.048 -26.045  -1.013  1.00  0.00    -0.075 A 
HETATM   32  C   LIG     1     -16.169 -24.747  -1.511  1.00  0.00    -0.060 A 
HETATM   33  H   LIG     1     -16.673 -26.827  -1.439  1.00  0.00     0.084 H 
HETATM   34  C   LIG     1     -15.373 -23.731  -0.982  1.00  0.00     0.074 A 
HETATM   35  H   LIG     1     -16.887 -24.540  -2.302  1.00  0.00     0.085 H 
HETATM   36  C   LIG     1     -14.461 -24.003   0.042  1.00  0.00    -0.060 A 
HETATM   37  C   LIG     1     -14.348 -25.307   0.539  1.00  0.00    -0.075 A 
HETATM   38  H   LIG     1     -13.843 -23.210   0.455  1.00  0.00     0.085 H 
HETATM   39  H   LIG     1     -13.628 -25.507   1.330  1.00  0.00     0.084 H 
BRANCH  34  40
HETATM   40  S   LIG     1     -15.528 -22.075  -1.588  1.00  0.00     0.239 S 
HETATM   41  O   LIG     1     -16.917 -21.736  -1.655  1.00  0.00    -0.206 OA
HETATM   42  O   LIG     1     -14.617 -21.887  -2.707  1.00  0.00    -0.206 OA
BRANCH  40  43
HETATM   43  N   LIG     1     -14.870 -21.165  -0.339  1.00  0.00    -0.225 NA
HETATM   44  H   LIG     1     -15.577 -20.522   0.018  1.00  0.00     0.136 HD
HETATM   45  H   LIG     1     -14.019 -20.704  -0.660  1.00  0.00     0.136 HD
ENDBRANCH  40  43
ENDBRANCH  34  40
ENDBRANCH  27  30
ENDBRANCH  23  27
ENDBRANCH  13  17
ENDBRANCH   1  11
BRANCH   2  46
HETATM   46  C   LIG     1      -7.110 -30.397  -3.671  1.00  0.00    -0.027 C 
HETATM   47  H   LIG     1      -6.046 -30.135  -3.719  1.00  0.00     0.042 H 
HETATM   48  H   LIG     1      -7.608 -29.617  -3.084  1.00  0.00     0.042 H 
BRANCH  46  49
HETATM   49  C   LIG     1      -7.700 -30.337  -5.084  1.00  0.00    -0.001 C 
HETATM   50  H   LIG     1      -6.944 -30.017  -5.813  1.00  0.00     0.064 H 
HETATM   51  H   LIG     1      -8.496 -29.588  -5.125  1.00  0.00     0.064 H 
BRANCH  49  52
HETATM   52  N   LIG     1      -8.229 -31.629  -5.491  1.00  0.00    -0.360 N 
HETATM   53  C   LIG     1      -8.369 -31.951  -6.818  1.00  0.00     0.221 C 
HETATM   54  O   LIG     1      -8.144 -31.137  -7.707  1.00  0.00    -0.273 OA
HETATM   55  H   LIG     1      -8.289 -32.375  -4.808  1.00  0.00     0.162 HD
BRANCH  53  56
HETATM   56  C   LIG     1      -8.918 -33.358  -7.083  1.00  0.00     0.024 C 
HETATM   57  C   LIG     1      -9.657 -33.886  -5.842  1.00  0.00    -0.051 C 
HETATM   58  C   LIG     1     -11.030 -33.235  -5.643  1.00  0.00    -0.040 C 
HETATM   59  H   LIG     1      -9.052 -33.725  -4.941  1.00  0.00     0.034 H 
HETATM   60  H   LIG     1      -9.780 -34.972  -5.933  1.00  0.00     0.034 H 
HETATM   61  C   LIG     1     -11.902 -33.287  -6.897  1.00  0.00     0.035 C 
HETATM   62  H   LIG     1     -10.900 -32.188  -5.341  1.00  0.00     0.036 H 
HETATM   63  H   LIG     1     -11.538 -33.744  -4.816  1.00  0.00     0.036 H 
HETATM   64  C   LIG     1     -11.164 -32.781  -8.139  1.00  0.00    -0.040 C 
HETATM   65  H   LIG     1     -12.793 -32.668  -6.740  1.00  0.00     0.082 H 
HETATM   66  C   LIG     1      -9.805 -33.454  -8.332  1.00  0.00    -0.051 C 
HETATM   67  H   LIG     1     -11.018 -31.696  -8.063  1.00  0.00     0.036 H 
HETATM   68  H   LIG     1     -11.774 -32.965  -9.031  1.00  0.00     0.036 H 
HETATM   69  H   LIG     1      -9.318 -33.018  -9.211  1.00  0.00     0.034 H 
HETATM   70  H   LIG     1      -9.961 -34.513  -8.577  1.00  0.00     0.034 H 
HETATM   71  H   LIG     1      -8.034 -33.992  -7.242  1.00  0.00     0.054 H 
BRANCH  61  72
HETATM   72  O   LIG     1     -12.368 -34.620  -7.109  1.00  0.00    -0.396 OA
HETATM   73  H   LIG     1     -11.594 -35.201  -7.190  1.00  0.00     0.210 HD
ENDBRANCH  61  72
ENDBRANCH  53  56
ENDBRANCH  49  52
ENDBRANCH  46  49
ENDBRANCH   2  46
TORSDOF 11
ENDMDL
MODEL 4
REMARK minimizedAffinity -5.61428499
REMARK minimizedRMSD -1
REMARK  11 active torsions:
REMARK  status: ('A' for Active; 'I' for Inactive)
REMARK    1  A    between atoms: N_1  and  S_2 
REMARK    2  A    between atoms: S_2  and  C_5 
REMARK    3  A    between atoms: C_8  and  C_9 
REMARK    4  A    between atoms: C_9  and  C_10 
REMARK    5  A    between atoms: C_14  and  N_15 
REMARK       I    between atoms: N_15  and  C_16 
REMARK       I    between atoms: C_16  and  N_18 
REMARK    6  A    between atoms: N_18  and  C_19 
REMARK    7  A    between atoms: C_20  and  C_21 
REMARK    8  A    between atoms: C_21  and  C_22 
REMARK    9  A    between atoms: C_22  and  N_23 
REMARK       I    between atoms: N_23  and  C_24 
REMARK   10  A    between atoms: C_24  and  C_26 
REMARK   11  A    between atoms: C_29  and  O_30 
ROOT
HETATM    1  C   LIG     1      -8.419 -32.974  -2.551  1.00  0.00     0.057 C 
HETATM    2  C   LIG     1      -7.491 -32.357  -3.316  1.00  0.00    -0.041 C 
HETATM    3  C   LIG     1      -6.376 -33.175  -3.948  1.00  0.00     0.034 C 
HETATM    4  C   LIG     1      -6.784 -34.624  -4.132  1.00  0.00     0.246 C 
HETATM    5  O   LIG     1      -6.500 -35.222  -5.165  1.00  0.00    -0.271 OA
HETATM    6  N   LIG     1      -7.400 -35.205  -3.054  1.00  0.00    -0.224 NA
HETATM    7  C   LIG     1      -8.143 -34.431  -2.325  1.00  0.00     0.032 C 
HETATM    8  H   LIG     1      -5.461 -33.112  -3.355  1.00  0.00     0.054 H 
HETATM    9  H   LIG     1      -6.146 -32.833  -4.960  1.00  0.00     0.054 H 
HETATM   10  H   LIG     1      -8.562 -34.871  -1.408  1.00  0.00     0.118 H 
ENDROOT
BRANCH   1  11
HETATM   11  N   LIG     1      -9.473 -32.304  -1.962  1.00  0.00    -0.307 N 
HETATM   12  C   LIG     1     -10.746 -32.060  -2.469  1.00  0.00     0.325 C 
HETATM   13  N   LIG     1     -11.482 -31.316  -1.551  1.00  0.00    -0.309 N 
HETATM   14  O   LIG     1     -11.122 -32.432  -3.572  1.00  0.00    -0.247 OA
HETATM   15  H   LIG     1     -11.112 -31.259  -0.615  1.00  0.00     0.170 HD
HETATM   16  H   LIG     1      -9.281 -31.821  -1.101  1.00  0.00     0.170 HD
BRANCH  13  17
HETATM   17  C   LIG     1     -12.790 -30.800  -1.673  1.00  0.00     0.036 A 
HETATM   18  C   LIG     1     -13.896 -31.556  -2.050  1.00  0.00    -0.057 A 
HETATM   19  C   LIG     1     -15.170 -30.982  -2.040  1.00  0.00    -0.080 A 
HETATM   20  H   LIG     1     -13.805 -32.604  -2.316  1.00  0.00     0.086 H 
HETATM   21  C   LIG     1     -15.344 -29.642  -1.688  1.00  0.00    -0.076 A 
HETATM   22  H   LIG     1     -16.035 -31.595  -2.287  1.00  0.00     0.083 H 
HETATM   23  C   LIG     1     -14.242 -28.852  -1.339  1.00  0.00    -0.052 A 
HETATM   24  H   LIG     1     -16.349 -29.226  -1.674  1.00  0.00     0.084 H 
HETATM   25  C   LIG     1     -12.970 -29.444  -1.338  1.00  0.00    -0.051 A 
HETATM   26  H   LIG     1     -12.113 -28.831  -1.068  1.00  0.00     0.087 H 
BRANCH  23  27
HETATM   27  C   LIG     1     -14.422 -27.406  -0.921  1.00  0.00    -0.017 C 
HETATM   28  H   LIG     1     -14.146 -26.761  -1.768  1.00  0.00     0.047 H 
HETATM   29  H   LIG     1     -15.485 -27.195  -0.741  1.00  0.00     0.047 H 
BRANCH  27  30
HETATM   30  C   LIG     1     -13.631 -27.007   0.310  1.00  0.00    -0.054 A 
HETATM   31  C   LIG     1     -14.172 -27.188   1.594  1.00  0.00    -0.075 A 
HETATM   32  C   LIG     1     -13.453 -26.822   2.733  1.00  0.00    -0.060 A 
HETATM   33  H   LIG     1     -15.160 -27.624   1.719  1.00  0.00     0.084 H 
HETATM   34  C   LIG     1     -12.186 -26.255   2.593  1.00  0.00     0.074 A 
HETATM   35  H   LIG     1     -13.887 -26.988   3.717  1.00  0.00     0.085 H 
HETATM   36  C   LIG     1     -11.633 -26.055   1.325  1.00  0.00    -0.060 A 
HETATM   37  C   LIG     1     -12.358 -26.429   0.187  1.00  0.00    -0.075 A 
HETATM   38  H   LIG     1     -10.644 -25.616   1.218  1.00  0.00     0.085 H 
HETATM   39  H   LIG     1     -11.919 -26.260  -0.794  1.00  0.00     0.084 H 
BRANCH  34  40
HETATM   40  S   LIG     1     -11.254 -25.803   4.028  1.00  0.00     0.239 S 
HETATM   41  O   LIG     1     -12.109 -25.095   4.932  1.00  0.00    -0.206 OA
HETATM   42  O   LIG     1      -9.953 -25.297   3.615  1.00  0.00    -0.206 OA
BRANCH  40  43
HETATM   43  N   LIG     1     -10.931 -27.291   4.737  1.00  0.00    -0.225 NA
HETATM   44  H   LIG     1     -11.334 -27.313   5.674  1.00  0.00     0.136 HD
HETATM   45  H   LIG     1      -9.927 -27.472   4.717  1.00  0.00     0.136 HD
ENDBRANCH  40  43
ENDBRANCH  34  40
ENDBRANCH  27  30
ENDBRANCH  23  27
ENDBRANCH  13  17
ENDBRANCH   1  11
BRANCH   2  46
HETATM   46  C   LIG     1      -7.456 -30.862  -3.584  1.00  0.00    -0.027 C 
HETATM   47  H   LIG     1      -6.412 -30.530  -3.532  1.00  0.00     0.042 H 
HETATM   48  H   LIG     1      -8.006 -30.321  -2.805  1.00  0.00     0.042 H 
BRANCH  46  49
HETATM   49  C   LIG     1      -8.046 -30.429  -4.930  1.00  0.00    -0.001 C 
HETATM   50  H   LIG     1      -7.255 -30.252  -5.669  1.00  0.00     0.064 H 
HETATM   51  H   LIG     1      -8.575 -29.478  -4.818  1.00  0.00     0.064 H 
BRANCH  49  52
HETATM   52  N   LIG     1      -8.961 -31.432  -5.453  1.00  0.00    -0.360 N 
HETATM   53  C   LIG     1      -9.868 -31.120  -6.434  1.00  0.00     0.221 C 
HETATM   54  O   LIG     1     -10.009 -29.972  -6.843  1.00  0.00    -0.273 OA
HETATM   55  H   LIG     1      -8.787 -32.409  -5.255  1.00  0.00     0.162 HD
BRANCH  53  56
HETATM   56  C   LIG     1     -10.745 -32.292  -6.895  1.00  0.00     0.024 C 
HETATM   57  C   LIG     1     -11.230 -32.063  -8.336  1.00  0.00    -0.051 C 
HETATM   58  C   LIG     1     -10.130 -32.292  -9.378  1.00  0.00    -0.040 C 
HETATM   59  H   LIG     1     -11.621 -31.044  -8.448  1.00  0.00     0.034 H 
HETATM   60  H   LIG     1     -12.071 -32.735  -8.542  1.00  0.00     0.034 H 
HETATM   61  C   LIG     1      -9.425 -33.638  -9.215  1.00  0.00     0.035 C 
HETATM   62  H   LIG     1      -9.386 -31.489  -9.311  1.00  0.00     0.036 H 
HETATM   63  H   LIG     1     -10.580 -32.226 -10.376  1.00  0.00     0.036 H 
HETATM   64  C   LIG     1      -8.958 -33.879  -7.778  1.00  0.00    -0.040 C 
HETATM   65  H   LIG     1      -8.554 -33.669  -9.879  1.00  0.00     0.082 H 
HETATM   66  C   LIG     1     -10.072 -33.664  -6.753  1.00  0.00    -0.051 C 
HETATM   67  H   LIG     1      -8.123 -33.207  -7.545  1.00  0.00     0.036 H 
HETATM   68  H   LIG     1      -8.587 -34.906  -7.678  1.00  0.00     0.036 H 
HETATM   69  H   LIG     1      -9.660 -33.814  -5.749  1.00  0.00     0.034 H 
HETATM   70  H   LIG     1     -10.832 -34.447  -6.879  1.00  0.00     0.034 H 
HETATM   71  H   LIG     1     -11.626 -32.274  -6.237  1.00  0.00     0.054 H 
BRANCH  61  72
HETATM   72  O   LIG     1     -10.291 -34.693  -9.637  1.00  0.00    -0.396 OA
HETATM   73  H   LIG     1     -11.101 -34.649  -9.103  1.00  0.00     0.210 HD
ENDBRANCH  61  72
ENDBRANCH  53  56
ENDBRANCH  49  52
ENDBRANCH  46  49
ENDBRANCH   2  46
TORSDOF 11
ENDMDL
MODEL 5
REMARK minimizedAffinity -5.28344202
REMARK minimizedRMSD -1
REMARK  11 active torsions:
REMARK  status: ('A' for Active; 'I' for Inactive)
REMARK    1  A    between atoms: N_1  and  S_2 
REMARK    2  A    between atoms: S_2  and  C_5 
REMARK    3  A    between atoms: C_8  and  C_9 
REMARK    4  A    between atoms: C_9  and  C_10 
REMARK    5  A    between atoms: C_14  and  N_15 
REMARK       I    between atoms: N_15  and  C_16 
REMARK       I    between atoms: C_16  and  N_18 
REMARK    6  A    between atoms: N_18  and  C_19 
REMARK    7  A    between atoms: C_20  and  C_21 
REMARK    8  A    between atoms: C_21  and  C_22 
REMARK    9  A    between atoms: C_22  and  N_23 
REMARK       I    between atoms: N_23  and  C_24 
REMARK   10  A    between atoms: C_24  and  C_26 
REMARK   11  A    between atoms: C_29  and  O_30 
ROOT
HETATM    1  C   LIG     1      -8.445 -29.201  -4.679  1.00  0.00     0.057 C 
HETATM    2  C   LIG     1      -7.334 -29.958  -4.548  1.00  0.00    -0.041 C 
HETATM    3  C   LIG     1      -6.259 -29.906  -5.622  1.00  0.00     0.034 C 
HETATM    4  C   LIG     1      -6.292 -28.592  -6.378  1.00  0.00     0.246 C 
HETATM    5  O   LIG     1      -5.248 -28.013  -6.662  1.00  0.00    -0.271 OA
HETATM    6  N   LIG     1      -7.535 -28.167  -6.769  1.00  0.00    -0.224 NA
HETATM    7  C   LIG     1      -8.523 -28.463  -5.983  1.00  0.00     0.032 C 
HETATM    8  H   LIG     1      -6.358 -30.743  -6.315  1.00  0.00     0.054 H 
HETATM    9  H   LIG     1      -5.255 -29.941  -5.193  1.00  0.00     0.054 H 
HETATM   10  H   LIG     1      -9.531 -28.207  -6.339  1.00  0.00     0.118 H 
ENDROOT
BRANCH   1  11
HETATM   11  N   LIG     1      -9.454 -29.178  -3.736  1.00  0.00    -0.307 N 
HETATM   12  C   LIG     1     -10.773 -29.606  -3.856  1.00  0.00     0.325 C 
HETATM   13  N   LIG     1     -11.455 -29.365  -2.666  1.00  0.00    -0.309 N 
HETATM   14  O   LIG     1     -11.240 -30.092  -4.877  1.00  0.00    -0.247 OA
HETATM   15  H   LIG     1     -10.892 -29.149  -1.858  1.00  0.00     0.170 HD
HETATM   16  H   LIG     1      -9.265 -28.685  -2.880  1.00  0.00     0.170 HD
BRANCH  13  17
HETATM   17  C   LIG     1     -12.816 -29.585  -2.364  1.00  0.00     0.036 A 
HETATM   18  C   LIG     1     -13.582 -30.607  -2.916  1.00  0.00    -0.057 A 
HETATM   19  C   LIG     1     -14.892 -30.813  -2.476  1.00  0.00    -0.080 A 
HETATM   20  H   LIG     1     -13.177 -31.284  -3.661  1.00  0.00     0.086 H 
HETATM   21  C   LIG     1     -15.456 -29.981  -1.507  1.00  0.00    -0.076 A 
HETATM   22  H   LIG     1     -15.467 -31.646  -2.877  1.00  0.00     0.083 H 
HETATM   23  C   LIG     1     -14.716 -28.925  -0.961  1.00  0.00    -0.052 A 
HETATM   24  H   LIG     1     -16.472 -30.174  -1.171  1.00  0.00     0.084 H 
HETATM   25  C   LIG     1     -13.396 -28.738  -1.401  1.00  0.00    -0.051 A 
HETATM   26  H   LIG     1     -12.820 -27.917  -0.979  1.00  0.00     0.087 H 
BRANCH  23  27
HETATM   27  C   LIG     1     -15.305 -28.037   0.117  1.00  0.00    -0.017 C 
HETATM   28  H   LIG     1     -16.311 -28.406   0.361  1.00  0.00     0.047 H 
HETATM   29  H   LIG     1     -14.732 -28.143   1.048  1.00  0.00     0.047 H 
BRANCH  27  30
HETATM   30  C   LIG     1     -15.369 -26.567  -0.251  1.00  0.00    -0.054 A 
HETATM   31  C   LIG     1     -16.080 -26.148  -1.388  1.00  0.00    -0.075 A 
HETATM   32  C   LIG     1     -16.143 -24.798  -1.737  1.00  0.00    -0.060 A 
HETATM   33  H   LIG     1     -16.599 -26.872  -2.011  1.00  0.00     0.084 H 
HETATM   34  C   LIG     1     -15.479 -23.854  -0.953  1.00  0.00     0.074 A 
HETATM   35  H   LIG     1     -16.714 -24.497  -2.613  1.00  0.00     0.085 H 
HETATM   36  C   LIG     1     -14.757 -24.249   0.176  1.00  0.00    -0.060 A 
HETATM   37  C   LIG     1     -14.701 -25.604   0.523  1.00  0.00    -0.075 A 
HETATM   38  H   LIG     1     -14.242 -23.512   0.788  1.00  0.00     0.085 H 
HETATM   39  H   LIG     1     -14.129 -25.900   1.399  1.00  0.00     0.084 H 
BRANCH  34  40
HETATM   40  S   LIG     1     -15.565 -22.136  -1.370  1.00  0.00     0.239 S 
HETATM   41  O   LIG     1     -16.873 -21.648  -1.052  1.00  0.00    -0.206 OA
HETATM   42  O   LIG     1     -14.942 -21.926  -2.669  1.00  0.00    -0.206 OA
BRANCH  40  43
HETATM   43  N   LIG     1     -14.509 -21.438  -0.267  1.00  0.00    -0.225 NA
HETATM   44  H   LIG     1     -15.017 -20.766   0.307  1.00  0.00     0.136 HD
HETATM   45  H   LIG     1     -13.711 -21.037  -0.760  1.00  0.00     0.136 HD
ENDBRANCH  40  43
ENDBRANCH  34  40
ENDBRANCH  27  30
ENDBRANCH  23  27
ENDBRANCH  13  17
ENDBRANCH   1  11
BRANCH   2  46
HETATM   46  C   LIG     1      -7.074 -30.909  -3.391  1.00  0.00    -0.027 C 
HETATM   47  H   LIG     1      -7.131 -30.335  -2.457  1.00  0.00     0.042 H 
HETATM   48  H   LIG     1      -6.061 -31.321  -3.456  1.00  0.00     0.042 H 
BRANCH  46  49
HETATM   49  C   LIG     1      -8.035 -32.099  -3.299  1.00  0.00    -0.001 C 
HETATM   50  H   LIG     1      -8.999 -31.796  -2.870  1.00  0.00     0.064 H 
HETATM   51  H   LIG     1      -7.628 -32.856  -2.623  1.00  0.00     0.064 H 
BRANCH  49  52
HETATM   52  N   LIG     1      -8.268 -32.692  -4.606  1.00  0.00    -0.360 N 
HETATM   53  C   LIG     1      -9.502 -33.183  -4.952  1.00  0.00     0.221 C 
HETATM   54  O   LIG     1     -10.428 -33.227  -4.148  1.00  0.00    -0.273 OA
HETATM   55  H   LIG     1      -7.587 -32.547  -5.342  1.00  0.00     0.162 HD
BRANCH  53  56
HETATM   56  C   LIG     1      -9.592 -33.753  -6.373  1.00  0.00     0.024 C 
HETATM   57  C   LIG     1     -11.057 -33.814  -6.833  1.00  0.00    -0.051 C 
HETATM   58  C   LIG     1     -11.625 -32.438  -7.199  1.00  0.00    -0.040 C 
HETATM   59  H   LIG     1     -11.684 -34.262  -6.052  1.00  0.00     0.034 H 
HETATM   60  H   LIG     1     -11.134 -34.480  -7.701  1.00  0.00     0.034 H 
HETATM   61  C   LIG     1     -10.743 -31.672  -8.184  1.00  0.00     0.035 C 
HETATM   62  H   LIG     1     -11.749 -31.838  -6.289  1.00  0.00     0.036 H 
HETATM   63  H   LIG     1     -12.625 -32.578  -7.626  1.00  0.00     0.036 H 
HETATM   64  C   LIG     1      -9.280 -31.626  -7.740  1.00  0.00    -0.040 C 
HETATM   65  H   LIG     1     -11.116 -30.646  -8.276  1.00  0.00     0.082 H 
HETATM   66  C   LIG     1      -8.724 -33.009  -7.398  1.00  0.00    -0.051 C 
HETATM   67  H   LIG     1      -9.182 -30.974  -6.863  1.00  0.00     0.036 H 
HETATM   68  H   LIG     1      -8.665 -31.192  -8.538  1.00  0.00     0.036 H 
HETATM   69  H   LIG     1      -7.691 -32.898  -7.052  1.00  0.00     0.034 H 
HETATM   70  H   LIG     1      -8.665 -33.609  -8.315  1.00  0.00     0.034 H 
HETATM   71  H   LIG     1      -9.221 -34.785  -6.297  1.00  0.00     0.054 H 
BRANCH  61  72
HETATM   72  O   LIG     1     -10.848 -32.256  -9.483  1.00  0.00    -0.396 OA
HETATM   73  H   LIG     1     -10.580 -33.188  -9.417  1.00  0.00     0.210 HD
ENDBRANCH  61  72
ENDBRANCH  53  56
ENDBRANCH  49  52
ENDBRANCH  46  49
ENDBRANCH   2  46
TORSDOF 11
ENDMDL
