MODEL 1
REMARK minimizedAffinity -6.25348043
REMARK minimizedRMSD -1
REMARK  14 active torsions:
REMARK  status: ('A' for Active; 'I' for Inactive)
REMARK    1  A    between atoms: N_1  and  S_2 
REMARK    2  A    between atoms: S_2  and  C_5 
REMARK    3  A    between atoms: C_8  and  C_9 
REMARK    4  A    between atoms: C_9  and  C_10 
REMARK    5  A    between atoms: C_14  and  N_15 
REMARK       I    between atoms: N_15  and  C_16 
REMARK    6  A    between atoms: C_16  and  C_18 
REMARK    7  A    between atoms: C_18  and  C_19 
REMARK    8  A    between atoms: C_18  and  C_21 
REMARK    9  A    between atoms: C_19  and  S_20 
REMARK   10  A    between atoms: C_26  and  C_27 
REMARK   11  A    between atoms: C_27  and  C_28 
REMARK   12  A    between atoms: C_28  and  N_29 
REMARK       I    between atoms: N_29  and  C_30 
REMARK   13  A    between atoms: C_30  and  C_32 
REMARK   14  A    between atoms: C_36  and  O_38 
ROOT
HETATM    1  C   LIG     1      -9.850 -22.237  -1.133  1.00  0.00     0.059 C 
HETATM    2  H   LIG     1     -10.404 -21.334  -1.433  1.00  0.00     0.063 H 
ENDROOT
BRANCH   1   3
HETATM    3  C   LIG     1     -10.847 -23.077  -0.315  1.00  0.00     0.231 C 
HETATM    4  N   LIG     1     -10.324 -24.163   0.374  1.00  0.00    -0.327 N 
HETATM    5  H   LIG     1      -9.347 -24.387   0.215  1.00  0.00     0.169 HD
HETATM    6  O   LIG     1     -12.009 -22.679  -0.235  1.00  0.00    -0.272 OA
BRANCH   4   7
HETATM    7  C   LIG     1     -10.986 -24.962   1.350  1.00  0.00     0.035 A 
HETATM    8  C   LIG     1     -10.351 -25.506   2.467  1.00  0.00    -0.057 A 
HETATM    9  C   LIG     1     -11.038 -26.366   3.333  1.00  0.00    -0.080 A 
HETATM   10  H   LIG     1      -9.309 -25.308   2.692  1.00  0.00     0.086 H 
HETATM   11  C   LIG     1     -12.359 -26.728   3.073  1.00  0.00    -0.076 A 
HETATM   12  H   LIG     1     -10.517 -26.789   4.189  1.00  0.00     0.083 H 
HETATM   13  C   LIG     1     -13.025 -26.211   1.956  1.00  0.00    -0.052 A 
HETATM   14  H   LIG     1     -12.840 -27.452   3.727  1.00  0.00     0.084 H 
HETATM   15  C   LIG     1     -12.337 -25.291   1.130  1.00  0.00    -0.051 A 
HETATM   16  H   LIG     1     -12.860 -24.871   0.273  1.00  0.00     0.087 H 
BRANCH  13  17
HETATM   17  C   LIG     1     -14.354 -26.791   1.504  1.00  0.00    -0.017 C 
HETATM   18  H   LIG     1     -14.945 -27.102   2.375  1.00  0.00     0.047 H 
HETATM   19  H   LIG     1     -14.925 -25.959   1.068  1.00  0.00     0.047 H 
BRANCH  17  20
HETATM   20  C   LIG     1     -14.347 -27.933   0.507  1.00  0.00    -0.054 A 
HETATM   21  C   LIG     1     -15.505 -28.275  -0.210  1.00  0.00    -0.075 A 
HETATM   22  C   LIG     1     -15.475 -29.282  -1.188  1.00  0.00    -0.060 A 
HETATM   23  H   LIG     1     -16.436 -27.740  -0.032  1.00  0.00     0.084 H 
HETATM   24  C   LIG     1     -14.281 -29.959  -1.419  1.00  0.00     0.074 A 
HETATM   25  H   LIG     1     -16.374 -29.518  -1.749  1.00  0.00     0.085 H 
HETATM   26  C   LIG     1     -13.117 -29.630  -0.730  1.00  0.00    -0.060 A 
HETATM   27  C   LIG     1     -13.151 -28.617   0.225  1.00  0.00    -0.075 A 
HETATM   28  H   LIG     1     -12.184 -30.152  -0.936  1.00  0.00     0.085 H 
HETATM   29  H   LIG     1     -12.230 -28.347   0.736  1.00  0.00     0.084 H 
BRANCH  24  30
HETATM   30  S   LIG     1     -14.197 -31.247  -2.640  1.00  0.00     0.239 S 
HETATM   31  O   LIG     1     -15.474 -31.962  -2.652  1.00  0.00    -0.206 OA
HETATM   32  O   LIG     1     -12.937 -31.918  -2.557  1.00  0.00    -0.206 OA
BRANCH  30  33
HETATM   33  N   LIG     1     -14.161 -30.366  -4.073  1.00  0.00    -0.225 NA
HETATM   34  H   LIG     1     -14.989 -30.555  -4.629  1.00  0.00     0.136 HD
HETATM   35  H   LIG     1     -13.276 -30.546  -4.559  1.00  0.00     0.136 HD
ENDBRANCH  30  33
ENDBRANCH  24  30
ENDBRANCH  17  20
ENDBRANCH  13  17
ENDBRANCH   4   7
ENDBRANCH   1   3
BRANCH   1  36
HETATM   36  C   LIG     1      -8.758 -21.709  -0.147  1.00  0.00    -0.011 C 
HETATM   37  H   LIG     1      -7.886 -22.371  -0.169  1.00  0.00     0.050 H 
HETATM   38  H   LIG     1      -9.142 -21.740   0.880  1.00  0.00     0.050 H 
BRANCH  36  39
HETATM   39  S   LIG     1      -8.095 -20.012  -0.412  1.00  0.00    -0.181 SA
HETATM   40  H   LIG     1      -7.496 -20.231  -1.593  1.00  0.00     0.101 HD
ENDBRANCH  36  39
ENDBRANCH   1  36
BRANCH   1  41
HETATM   41  C   LIG     1      -9.387 -22.862  -2.453  1.00  0.00    -0.020 C 
HETATM   42  C   LIG     1      -8.219 -23.640  -2.464  1.00  0.00     0.009 C 
HETATM   43  N   LIG     1      -7.761 -24.377  -3.497  1.00  0.00    -0.273 NA
HETATM   44  H   LIG     1      -7.559 -23.717  -1.606  1.00  0.00     0.115 H 
HETATM   45  C   LIG     1      -8.466 -24.318  -4.626  1.00  0.00     0.002 C 
HETATM   46  C   LIG     1      -9.554 -23.485  -4.782  1.00  0.00    -0.059 C 
HETATM   47  H   LIG     1      -8.126 -24.954  -5.434  1.00  0.00     0.114 H 
HETATM   48  C   LIG     1     -10.041 -22.719  -3.703  1.00  0.00    -0.047 C 
HETATM   49  H   LIG     1     -10.006 -23.453  -5.765  1.00  0.00     0.086 H 
BRANCH  48  50
HETATM   50  C   LIG     1     -11.168 -21.740  -4.024  1.00  0.00    -0.026 C 
HETATM   51  H   LIG     1     -10.978 -21.336  -5.031  1.00  0.00     0.042 H 
HETATM   52  H   LIG     1     -11.136 -20.873  -3.356  1.00  0.00     0.042 H 
BRANCH  50  53
HETATM   53  C   LIG     1     -12.596 -22.322  -3.992  1.00  0.00    -0.001 C 
HETATM   54  H   LIG     1     -13.009 -22.339  -5.007  1.00  0.00     0.064 H 
HETATM   55  H   LIG     1     -13.235 -21.682  -3.377  1.00  0.00     0.064 H 
BRANCH  53  56
HETATM   56  N   LIG     1     -12.683 -23.697  -3.525  1.00  0.00    -0.360 N 
HETATM   57  C   LIG     1     -13.761 -24.137  -2.789  1.00  0.00     0.221 C 
HETATM   58  O   LIG     1     -14.687 -23.394  -2.478  1.00  0.00    -0.273 OA
HETATM   59  H   LIG     1     -12.075 -24.381  -3.953  1.00  0.00     0.162 HD
BRANCH  57  60
HETATM   60  C   LIG     1     -13.672 -25.594  -2.314  1.00  0.00     0.024 C 
HETATM   61  H   LIG     1     -14.175 -25.623  -1.338  1.00  0.00     0.054 H 
HETATM   62  C   LIG     1     -14.455 -26.520  -3.267  1.00  0.00    -0.051 C 
HETATM   63  C   LIG     1     -13.711 -26.786  -4.582  1.00  0.00    -0.040 C 
HETATM   64  H   LIG     1     -15.438 -26.091  -3.499  1.00  0.00     0.034 H 
HETATM   65  H   LIG     1     -14.653 -27.474  -2.764  1.00  0.00     0.034 H 
HETATM   66  C   LIG     1     -12.265 -27.233  -4.366  1.00  0.00     0.035 C 
HETATM   67  H   LIG     1     -13.712 -25.875  -5.192  1.00  0.00     0.036 H 
HETATM   68  H   LIG     1     -14.260 -27.549  -5.145  1.00  0.00     0.036 H 
HETATM   69  H   LIG     1     -11.757 -27.321  -5.332  1.00  0.00     0.082 H 
HETATM   70  C   LIG     1     -11.515 -26.247  -3.475  1.00  0.00    -0.040 C 
HETATM   71  C   LIG     1     -12.229 -26.084  -2.132  1.00  0.00    -0.051 C 
HETATM   72  H   LIG     1     -11.432 -25.275  -3.976  1.00  0.00     0.036 H 
HETATM   73  H   LIG     1     -10.496 -26.608  -3.288  1.00  0.00     0.036 H 
HETATM   74  H   LIG     1     -11.644 -25.417  -1.494  1.00  0.00     0.034 H 
HETATM   75  H   LIG     1     -12.244 -27.049  -1.608  1.00  0.00     0.034 H 
BRANCH  66  76
HETATM   76  O   LIG     1     -12.216 -28.512  -3.735  1.00  0.00    -0.396 OA
HETATM   77  H   LIG     1     -13.047 -28.983  -3.915  1.00  0.00     0.210 HD
ENDBRANCH  66  76
ENDBRANCH  57  60
ENDBRANCH  53  56
ENDBRANCH  50  53
ENDBRANCH  48  50
ENDBRANCH   1  41
TORSDOF 14
ENDMDL
MODEL 2
REMARK minimizedAffinity -5.76362801
REMARK minimizedRMSD -1
REMARK  14 active torsions:
REMARK  status: ('A' for Active; 'I' for Inactive)
REMARK    1  A    between atoms: N_1  and  S_2 
REMARK    2  A    between atoms: S_2  and  C_5 
REMARK    3  A    between atoms: C_8  and  C_9 
REMARK    4  A    between atoms: C_9  and  C_10 
REMARK    5  A    between atoms: C_14  and  N_15 
REMARK       I    between atoms: N_15  and  C_16 
REMARK    6  A    between atoms: C_16  and  C_18 
REMARK    7  A    between atoms: C_18  and  C_19 
REMARK    8  A    between atoms: C_18  and  C_21 
REMARK    9  A    between atoms: C_19  and  S_20 
REMARK   10  A    between atoms: C_26  and  C_27 
REMARK   11  A    between atoms: C_27  and  C_28 
REMARK   12  A    between atoms: C_28  and  N_29 
REMARK       I    between atoms: N_29  and  C_30 
REMARK   13  A    between atoms: C_30  and  C_32 
REMARK   14  A    between atoms: C_36  and  O_38 
ROOT
HETATM    1  C   LIG     1     -11.665 -19.872  -0.870  1.00  0.00     0.059 C 
HETATM    2  H   LIG     1     -12.017 -19.340  -1.768  1.00  0.00     0.063 H 
ENDROOT
BRANCH   1   3
HETATM    3  C   LIG     1     -12.844 -20.757  -0.429  1.00  0.00     0.231 C 
HETATM    4  N   LIG     1     -13.176 -21.811  -1.270  1.00  0.00    -0.327 N 
HETATM    5  H   LIG     1     -12.689 -21.868  -2.158  1.00  0.00     0.169 HD
HETATM    6  O   LIG     1     -13.344 -20.547   0.676  1.00  0.00    -0.272 OA
BRANCH   4   7
HETATM    7  C   LIG     1     -14.076 -22.881  -0.994  1.00  0.00     0.035 A 
HETATM    8  C   LIG     1     -15.419 -22.880  -1.370  1.00  0.00    -0.057 A 
HETATM    9  C   LIG     1     -16.273 -23.919  -0.978  1.00  0.00    -0.080 A 
HETATM   10  H   LIG     1     -15.855 -22.075  -1.951  1.00  0.00     0.086 H 
HETATM   11  C   LIG     1     -15.806 -24.954  -0.170  1.00  0.00    -0.076 A 
HETATM   12  H   LIG     1     -17.320 -23.888  -1.271  1.00  0.00     0.083 H 
HETATM   13  C   LIG     1     -14.468 -24.982   0.238  1.00  0.00    -0.052 A 
HETATM   14  H   LIG     1     -16.512 -25.707   0.174  1.00  0.00     0.084 H 
HETATM   15  C   LIG     1     -13.604 -23.961  -0.224  1.00  0.00    -0.051 A 
HETATM   16  H   LIG     1     -12.557 -23.992   0.073  1.00  0.00     0.087 H 
BRANCH  13  17
HETATM   17  C   LIG     1     -14.004 -25.935   1.326  1.00  0.00    -0.017 C 
HETATM   18  H   LIG     1     -13.250 -25.447   1.956  1.00  0.00     0.047 H 
HETATM   19  H   LIG     1     -14.864 -26.087   1.994  1.00  0.00     0.047 H 
BRANCH  17  20
HETATM   20  C   LIG     1     -13.473 -27.296   0.922  1.00  0.00    -0.054 A 
HETATM   21  C   LIG     1     -14.283 -28.216   0.237  1.00  0.00    -0.075 A 
HETATM   22  C   LIG     1     -13.765 -29.444  -0.202  1.00  0.00    -0.060 A 
HETATM   23  H   LIG     1     -15.321 -27.971   0.016  1.00  0.00     0.084 H 
HETATM   24  C   LIG     1     -12.436 -29.751   0.075  1.00  0.00     0.074 A 
HETATM   25  H   LIG     1     -14.400 -30.134  -0.750  1.00  0.00     0.085 H 
HETATM   26  C   LIG     1     -11.609 -28.851   0.740  1.00  0.00    -0.060 A 
HETATM   27  C   LIG     1     -12.126 -27.626   1.157  1.00  0.00    -0.075 A 
HETATM   28  H   LIG     1     -10.565 -29.093   0.931  1.00  0.00     0.085 H 
HETATM   29  H   LIG     1     -11.464 -26.918   1.650  1.00  0.00     0.084 H 
BRANCH  24  30
HETATM   30  S   LIG     1     -11.739 -31.297  -0.454  1.00  0.00     0.239 S 
HETATM   31  O   LIG     1     -11.801 -31.361  -1.915  1.00  0.00    -0.206 OA
HETATM   32  O   LIG     1     -12.206 -32.357   0.386  1.00  0.00    -0.206 OA
BRANCH  30  33
HETATM   33  N   LIG     1     -10.112 -31.092  -0.080  1.00  0.00    -0.225 NA
HETATM   34  H   LIG     1      -9.548 -31.100  -0.925  1.00  0.00     0.136 HD
HETATM   35  H   LIG     1      -9.834 -31.788   0.619  1.00  0.00     0.136 HD
ENDBRANCH  30  33
ENDBRANCH  24  30
ENDBRANCH  17  20
ENDBRANCH  13  17
ENDBRANCH   4   7
ENDBRANCH   1   3
BRANCH   1  36
HETATM   36  C   LIG     1     -11.494 -18.746   0.201  1.00  0.00    -0.011 C 
HETATM   37  H   LIG     1     -11.023 -19.158   1.100  1.00  0.00     0.050 H 
HETATM   38  H   LIG     1     -12.480 -18.379   0.511  1.00  0.00     0.050 H 
BRANCH  36  39
HETATM   39  S   LIG     1     -10.495 -17.266  -0.246  1.00  0.00    -0.181 SA
HETATM   40  H   LIG     1      -9.308 -17.878  -0.377  1.00  0.00     0.101 HD
ENDBRANCH  36  39
ENDBRANCH   1  36
BRANCH   1  41
HETATM   41  C   LIG     1     -10.413 -20.623  -1.333  1.00  0.00    -0.020 C 
HETATM   42  C   LIG     1      -9.525 -21.123  -0.368  1.00  0.00     0.009 C 
HETATM   43  N   LIG     1      -8.466 -21.928  -0.598  1.00  0.00    -0.273 NA
HETATM   44  H   LIG     1      -9.619 -20.894   0.688  1.00  0.00     0.115 H 
HETATM   45  C   LIG     1      -8.221 -22.235  -1.871  1.00  0.00     0.002 C 
HETATM   46  C   LIG     1      -8.938 -21.697  -2.919  1.00  0.00    -0.059 C 
HETATM   47  H   LIG     1      -7.405 -22.926  -2.045  1.00  0.00     0.114 H 
HETATM   48  C   LIG     1     -10.049 -20.862  -2.683  1.00  0.00    -0.047 C 
HETATM   49  H   LIG     1      -8.605 -21.949  -3.917  1.00  0.00     0.086 H 
BRANCH  48  50
HETATM   50  C   LIG     1     -10.687 -20.224  -3.914  1.00  0.00    -0.026 C 
HETATM   51  H   LIG     1      -9.883 -20.031  -4.642  1.00  0.00     0.042 H 
HETATM   52  H   LIG     1     -11.100 -19.238  -3.676  1.00  0.00     0.042 H 
BRANCH  50  53
HETATM   53  C   LIG     1     -11.788 -21.052  -4.609  1.00  0.00    -0.001 C 
HETATM   54  H   LIG     1     -12.002 -20.625  -5.596  1.00  0.00     0.064 H 
HETATM   55  H   LIG     1     -12.705 -21.007  -4.015  1.00  0.00     0.064 H 
BRANCH  53  56
HETATM   56  N   LIG     1     -11.436 -22.440  -4.865  1.00  0.00    -0.360 N 
HETATM   57  C   LIG     1     -12.272 -23.471  -4.500  1.00  0.00     0.221 C 
HETATM   58  O   LIG     1     -13.341 -23.274  -3.929  1.00  0.00    -0.273 OA
HETATM   59  H   LIG     1     -10.698 -22.624  -5.530  1.00  0.00     0.162 HD
BRANCH  57  60
HETATM   60  C   LIG     1     -11.728 -24.879  -4.778  1.00  0.00     0.024 C 
HETATM   61  H   LIG     1     -11.405 -24.874  -5.828  1.00  0.00     0.054 H 
HETATM   62  C   LIG     1     -10.484 -25.157  -3.911  1.00  0.00    -0.051 C 
HETATM   63  C   LIG     1     -10.835 -25.460  -2.449  1.00  0.00    -0.040 C 
HETATM   64  H   LIG     1      -9.796 -24.303  -3.938  1.00  0.00     0.034 H 
HETATM   65  H   LIG     1      -9.930 -26.004  -4.333  1.00  0.00     0.034 H 
HETATM   66  C   LIG     1     -11.916 -26.532  -2.307  1.00  0.00     0.035 C 
HETATM   67  H   LIG     1     -11.181 -24.542  -1.959  1.00  0.00     0.036 H 
HETATM   68  H   LIG     1      -9.923 -25.776  -1.929  1.00  0.00     0.036 H 
HETATM   69  H   LIG     1     -12.191 -26.643  -1.254  1.00  0.00     0.082 H 
HETATM   70  C   LIG     1     -13.152 -26.174  -3.129  1.00  0.00    -0.040 C 
HETATM   71  C   LIG     1     -12.782 -25.981  -4.600  1.00  0.00    -0.051 C 
HETATM   72  H   LIG     1     -13.614 -25.262  -2.735  1.00  0.00     0.036 H 
HETATM   73  H   LIG     1     -13.896 -26.976  -3.058  1.00  0.00     0.036 H 
HETATM   74  H   LIG     1     -13.690 -25.779  -5.175  1.00  0.00     0.034 H 
HETATM   75  H   LIG     1     -12.385 -26.922  -5.003  1.00  0.00     0.034 H 
BRANCH  66  76
HETATM   76  O   LIG     1     -11.442 -27.798  -2.766  1.00  0.00    -0.396 OA
HETATM   77  H   LIG     1     -10.471 -27.808  -2.710  1.00  0.00     0.210 HD
ENDBRANCH  66  76
ENDBRANCH  57  60
ENDBRANCH  53  56
ENDBRANCH  50  53
ENDBRANCH  48  50
ENDBRANCH   1  41
TORSDOF 14
ENDMDL
MODEL 3
REMARK minimizedAffinity -5.42139101
REMARK minimizedRMSD -1
REMARK  14 active torsions:
REMARK  status: ('A' for Active; 'I' for Inactive)
REMARK    1  A    between atoms: N_1  and  S_2 
REMARK    2  A    between atoms: S_2  and  C_5 
REMARK    3  A    between atoms: C_8  and  C_9 
REMARK    4  A    between atoms: C_9  and  C_10 
REMARK    5  A    between atoms: C_14  and  N_15 
REMARK       I    between atoms: N_15  and  C_16 
REMARK    6  A    between atoms: C_16  and  C_18 
REMARK    7  A    between atoms: C_18  and  C_19 
REMARK    8  A    between atoms: C_18  and  C_21 
REMARK    9  A    between atoms: C_19  and  S_20 
REMARK   10  A    between atoms: C_26  and  C_27 
REMARK   11  A    between atoms: C_27  and  C_28 
REMARK   12  A    between atoms: C_28  and  N_29 
REMARK       I    between atoms: N_29  and  C_30 
REMARK   13  A    between atoms: C_30  and  C_32 
REMARK   14  A    between atoms: C_36  and  O_38 
ROOT
HETATM    1  C   LIG     1     -11.545 -19.689  -0.728  1.00  0.00     0.059 C 
HETATM    2  H   LIG     1     -11.897 -18.754  -1.190  1.00  0.00     0.063 H 
ENDROOT
BRANCH   1   3
HETATM    3  C   LIG     1     -12.820 -20.453  -0.328  1.00  0.00     0.231 C 
HETATM    4  N   LIG     1     -13.374 -21.283  -1.293  1.00  0.00    -0.327 N 
HETATM    5  H   LIG     1     -12.964 -21.256  -2.220  1.00  0.00     0.169 HD
HETATM    6  O   LIG     1     -13.203 -20.368   0.840  1.00  0.00    -0.272 OA
BRANCH   4   7
HETATM    7  C   LIG     1     -14.415 -22.239  -1.110  1.00  0.00     0.035 A 
HETATM    8  C   LIG     1     -15.735 -22.033  -1.509  1.00  0.00    -0.057 A 
HETATM    9  C   LIG     1     -16.729 -22.972  -1.208  1.00  0.00    -0.080 A 
HETATM   10  H   LIG     1     -16.045 -21.139  -2.040  1.00  0.00     0.086 H 
HETATM   11  C   LIG     1     -16.427 -24.113  -0.467  1.00  0.00    -0.076 A 
HETATM   12  H   LIG     1     -17.755 -22.782  -1.518  1.00  0.00     0.083 H 
HETATM   13  C   LIG     1     -15.115 -24.348  -0.039  1.00  0.00    -0.052 A 
HETATM   14  H   LIG     1     -17.235 -24.787  -0.191  1.00  0.00     0.084 H 
HETATM   15  C   LIG     1     -14.111 -23.422  -0.411  1.00  0.00    -0.051 A 
HETATM   16  H   LIG     1     -13.086 -23.613  -0.097  1.00  0.00     0.087 H 
BRANCH  13  17
HETATM   17  C   LIG     1     -14.812 -25.426   0.987  1.00  0.00    -0.017 C 
HETATM   18  H   LIG     1     -14.078 -25.057   1.715  1.00  0.00     0.047 H 
HETATM   19  H   LIG     1     -15.732 -25.567   1.572  1.00  0.00     0.047 H 
BRANCH  17  20
HETATM   20  C   LIG     1     -14.349 -26.784   0.499  1.00  0.00    -0.054 A 
HETATM   21  C   LIG     1     -15.273 -27.764   0.100  1.00  0.00    -0.075 A 
HETATM   22  C   LIG     1     -14.840 -28.991  -0.424  1.00  0.00    -0.060 A 
HETATM   23  H   LIG     1     -16.342 -27.567   0.168  1.00  0.00     0.084 H 
HETATM   24  C   LIG     1     -13.473 -29.238  -0.518  1.00  0.00     0.074 A 
HETATM   25  H   LIG     1     -15.568 -29.728  -0.749  1.00  0.00     0.085 H 
HETATM   26  C   LIG     1     -12.538 -28.279  -0.141  1.00  0.00    -0.060 A 
HETATM   27  C   LIG     1     -12.976 -27.055   0.361  1.00  0.00    -0.075 A 
HETATM   28  H   LIG     1     -11.472 -28.474  -0.240  1.00  0.00     0.085 H 
HETATM   29  H   LIG     1     -12.238 -26.301   0.625  1.00  0.00     0.084 H 
BRANCH  24  30
HETATM   30  S   LIG     1     -12.877 -30.781  -1.166  1.00  0.00     0.239 S 
HETATM   31  O   LIG     1     -13.466 -30.987  -2.491  1.00  0.00    -0.206 OA
HETATM   32  O   LIG     1     -12.902 -31.782  -0.145  1.00  0.00    -0.206 OA
BRANCH  30  33
HETATM   33  N   LIG     1     -11.254 -30.439  -1.443  1.00  0.00    -0.225 NA
HETATM   34  H   LIG     1     -11.042 -30.493  -2.434  1.00  0.00     0.136 HD
HETATM   35  H   LIG     1     -10.674 -31.046  -0.854  1.00  0.00     0.136 HD
ENDBRANCH  30  33
ENDBRANCH  24  30
ENDBRANCH  17  20
ENDBRANCH  13  17
ENDBRANCH   4   7
ENDBRANCH   1   3
BRANCH   1  36
HETATM   36  C   LIG     1     -10.838 -19.227   0.587  1.00  0.00    -0.011 C 
HETATM   37  H   LIG     1      -9.933 -19.822   0.751  1.00  0.00     0.050 H 
HETATM   38  H   LIG     1     -11.493 -19.422   1.446  1.00  0.00     0.050 H 
BRANCH  36  39
HETATM   39  S   LIG     1     -10.305 -17.471   0.717  1.00  0.00    -0.181 SA
HETATM   40  H   LIG     1      -9.376 -17.489  -0.251  1.00  0.00     0.101 HD
ENDBRANCH  36  39
ENDBRANCH   1  36
BRANCH   1  41
HETATM   41  C   LIG     1     -10.689 -20.356  -1.810  1.00  0.00    -0.020 C 
HETATM   42  C   LIG     1     -10.698 -19.822  -3.108  1.00  0.00     0.009 C 
HETATM   43  N   LIG     1      -9.897 -20.192  -4.129  1.00  0.00    -0.273 NA
HETATM   44  H   LIG     1     -11.379 -19.034  -3.412  1.00  0.00     0.115 H 
HETATM   45  C   LIG     1      -9.051 -21.192  -3.885  1.00  0.00     0.002 C 
HETATM   46  C   LIG     1      -9.041 -21.887  -2.694  1.00  0.00    -0.059 C 
HETATM   47  H   LIG     1      -8.371 -21.448  -4.690  1.00  0.00     0.114 H 
HETATM   48  C   LIG     1      -9.871 -21.499  -1.623  1.00  0.00    -0.047 C 
HETATM   49  H   LIG     1      -8.371 -22.734  -2.630  1.00  0.00     0.086 H 
BRANCH  48  50
HETATM   50  C   LIG     1      -9.870 -22.416  -0.402  1.00  0.00    -0.026 C 
HETATM   51  H   LIG     1     -10.440 -21.910   0.393  1.00  0.00     0.042 H 
HETATM   52  H   LIG     1      -8.858 -22.532   0.001  1.00  0.00     0.042 H 
BRANCH  50  53
HETATM   53  C   LIG     1     -10.468 -23.822  -0.613  1.00  0.00    -0.001 C 
HETATM   54  H   LIG     1     -11.215 -24.025   0.163  1.00  0.00     0.064 H 
HETATM   55  H   LIG     1      -9.676 -24.570  -0.525  1.00  0.00     0.064 H 
BRANCH  53  56
HETATM   56  N   LIG     1     -11.174 -24.000  -1.873  1.00  0.00    -0.360 N 
HETATM   57  C   LIG     1     -11.192 -25.216  -2.519  1.00  0.00     0.221 C 
HETATM   58  O   LIG     1     -10.604 -26.199  -2.077  1.00  0.00    -0.273 OA
HETATM   59  H   LIG     1     -11.851 -23.299  -2.138  1.00  0.00     0.162 HD
BRANCH  57  60
HETATM   60  C   LIG     1     -11.923 -25.224  -3.869  1.00  0.00     0.024 C 
HETATM   61  H   LIG     1     -11.389 -24.502  -4.503  1.00  0.00     0.054 H 
HETATM   62  C   LIG     1     -11.802 -26.607  -4.539  1.00  0.00    -0.051 C 
HETATM   63  C   LIG     1     -12.725 -27.656  -3.907  1.00  0.00    -0.040 C 
HETATM   64  H   LIG     1     -10.768 -26.971  -4.488  1.00  0.00     0.034 H 
HETATM   65  H   LIG     1     -12.036 -26.515  -5.606  1.00  0.00     0.034 H 
HETATM   66  C   LIG     1     -14.171 -27.176  -3.780  1.00  0.00     0.035 C 
HETATM   67  H   LIG     1     -12.351 -27.917  -2.910  1.00  0.00     0.036 H 
HETATM   68  H   LIG     1     -12.684 -28.568  -4.513  1.00  0.00     0.036 H 
HETATM   69  H   LIG     1     -14.763 -27.924  -3.244  1.00  0.00     0.082 H 
HETATM   70  C   LIG     1     -14.241 -25.838  -3.049  1.00  0.00    -0.040 C 
HETATM   71  C   LIG     1     -13.391 -24.788  -3.765  1.00  0.00    -0.051 C 
HETATM   72  H   LIG     1     -13.898 -25.957  -2.015  1.00  0.00     0.036 H 
HETATM   73  H   LIG     1     -15.278 -25.483  -3.012  1.00  0.00     0.036 H 
HETATM   74  H   LIG     1     -13.501 -23.828  -3.254  1.00  0.00     0.034 H 
HETATM   75  H   LIG     1     -13.786 -24.626  -4.777  1.00  0.00     0.034 H 
BRANCH  66  76
HETATM   76  O   LIG     1     -14.763 -26.998  -5.067  1.00  0.00    -0.396 OA
HETATM   77  H   LIG     1     -14.291 -27.556  -5.709  1.00  0.00     0.210 HD
ENDBRANCH  66  76
ENDBRANCH  57  60
ENDBRANCH  53  56
ENDBRANCH  50  53
ENDBRANCH  48  50
ENDBRANCH   1  41
TORSDOF 14
ENDMDL
MODEL 4
REMARK minimizedAffinity -4.10370588
REMARK minimizedRMSD -1
REMARK  14 active torsions:
REMARK  status: ('A' for Active; 'I' for Inactive)
REMARK    1  A    between atoms: N_1  and  S_2 
REMARK    2  A    between atoms: S_2  and  C_5 
REMARK    3  A    between atoms: C_8  and  C_9 
REMARK    4  A    between atoms: C_9  and  C_10 
REMARK    5  A    between atoms: C_14  and  N_15 
REMARK       I    between atoms: N_15  and  C_16 
REMARK    6  A    between atoms: C_16  and  C_18 
REMARK    7  A    between atoms: C_18  and  C_19 
REMARK    8  A    between atoms: C_18  and  C_21 
REMARK    9  A    between atoms: C_19  and  S_20 
REMARK   10  A    between atoms: C_26  and  C_27 
REMARK   11  A    between atoms: C_27  and  C_28 
REMARK   12  A    between atoms: C_28  and  N_29 
REMARK       I    between atoms: N_29  and  C_30 
REMARK   13  A    between atoms: C_30  and  C_32 
REMARK   14  A    between atoms: C_36  and  O_38 
ROOT
HETATM    1  C   LIG     1     -12.076 -19.136  -2.961  1.00  0.00     0.059 C 
HETATM    2  H   LIG     1     -12.057 -18.153  -3.457  1.00  0.00     0.063 H 
ENDROOT
BRANCH   1   3
HETATM    3  C   LIG     1     -13.560 -19.413  -2.658  1.00  0.00     0.231 C 
HETATM    4  N   LIG     1     -13.944 -20.746  -2.610  1.00  0.00    -0.327 N 
HETATM    5  H   LIG     1     -13.251 -21.439  -2.873  1.00  0.00     0.169 HD
HETATM    6  O   LIG     1     -14.281 -18.456  -2.374  1.00  0.00    -0.272 OA
BRANCH   4   7
HETATM    7  C   LIG     1     -15.190 -21.266  -2.154  1.00  0.00     0.035 A 
HETATM    8  C   LIG     1     -16.391 -20.559  -2.208  1.00  0.00    -0.057 A 
HETATM    9  C   LIG     1     -17.560 -21.089  -1.650  1.00  0.00    -0.080 A 
HETATM   10  H   LIG     1     -16.461 -19.574  -2.657  1.00  0.00     0.086 H 
HETATM   11  C   LIG     1     -17.538 -22.318  -0.992  1.00  0.00    -0.076 A 
HETATM   12  H   LIG     1     -18.482 -20.512  -1.692  1.00  0.00     0.083 H 
HETATM   13  C   LIG     1     -16.349 -23.051  -0.906  1.00  0.00    -0.052 A 
HETATM   14  H   LIG     1     -18.448 -22.669  -0.509  1.00  0.00     0.084 H 
HETATM   15  C   LIG     1     -15.193 -22.530  -1.536  1.00  0.00    -0.051 A 
HETATM   16  H   LIG     1     -14.272 -23.108  -1.489  1.00  0.00     0.087 H 
BRANCH  13  17
HETATM   17  C   LIG     1     -16.234 -24.244   0.026  1.00  0.00    -0.017 C 
HETATM   18  H   LIG     1     -15.658 -23.970   0.919  1.00  0.00     0.047 H 
HETATM   19  H   LIG     1     -17.248 -24.443   0.403  1.00  0.00     0.047 H 
BRANCH  17  20
HETATM   20  C   LIG     1     -15.669 -25.540  -0.519  1.00  0.00    -0.054 A 
HETATM   21  C   LIG     1     -14.911 -26.399   0.293  1.00  0.00    -0.075 A 
HETATM   22  C   LIG     1     -14.455 -27.634  -0.193  1.00  0.00    -0.060 A 
HETATM   23  H   LIG     1     -14.692 -26.124   1.324  1.00  0.00     0.084 H 
HETATM   24  C   LIG     1     -14.743 -27.987  -1.508  1.00  0.00     0.074 A 
HETATM   25  H   LIG     1     -13.889 -28.295   0.457  1.00  0.00     0.085 H 
HETATM   26  C   LIG     1     -15.504 -27.160  -2.329  1.00  0.00    -0.060 A 
HETATM   27  C   LIG     1     -15.969 -25.944  -1.833  1.00  0.00    -0.075 A 
HETATM   28  H   LIG     1     -15.742 -27.458  -3.348  1.00  0.00     0.085 H 
HETATM   29  H   LIG     1     -16.587 -25.318  -2.473  1.00  0.00     0.084 H 
BRANCH  24  30
HETATM   30  S   LIG     1     -14.180 -29.537  -2.169  1.00  0.00     0.239 S 
HETATM   31  O   LIG     1     -15.273 -30.507  -2.079  1.00  0.00    -0.206 OA
HETATM   32  O   LIG     1     -12.858 -29.817  -1.701  1.00  0.00    -0.206 OA
BRANCH  30  33
HETATM   33  N   LIG     1     -14.027 -29.182  -3.806  1.00  0.00    -0.225 NA
HETATM   34  H   LIG     1     -14.679 -29.735  -4.354  1.00  0.00     0.136 HD
HETATM   35  H   LIG     1     -13.046 -29.286  -4.086  1.00  0.00     0.136 HD
ENDBRANCH  30  33
ENDBRANCH  24  30
ENDBRANCH  17  20
ENDBRANCH  13  17
ENDBRANCH   4   7
ENDBRANCH   1   3
BRANCH   1  36
HETATM   36  C   LIG     1     -11.354 -18.892  -1.597  1.00  0.00    -0.011 C 
HETATM   37  H   LIG     1     -11.285 -17.817  -1.400  1.00  0.00     0.050 H 
HETATM   38  H   LIG     1     -10.321 -19.260  -1.655  1.00  0.00     0.050 H 
BRANCH  36  39
HETATM   39  S   LIG     1     -12.091 -19.626  -0.079  1.00  0.00    -0.181 SA
HETATM   40  H   LIG     1     -13.228 -18.912  -0.063  1.00  0.00     0.101 HD
ENDBRANCH  36  39
ENDBRANCH   1  36
BRANCH   1  41
HETATM   41  C   LIG     1     -11.419 -20.088  -3.964  1.00  0.00    -0.020 C 
HETATM   42  C   LIG     1     -12.076 -20.359  -5.175  1.00  0.00     0.009 C 
HETATM   43  N   LIG     1     -11.572 -21.049  -6.220  1.00  0.00    -0.273 NA
HETATM   44  H   LIG     1     -13.087 -20.024  -5.380  1.00  0.00     0.115 H 
HETATM   45  C   LIG     1     -10.351 -21.556  -6.060  1.00  0.00     0.002 C 
HETATM   46  C   LIG     1      -9.658 -21.475  -4.870  1.00  0.00    -0.059 C 
HETATM   47  H   LIG     1      -9.928 -22.061  -6.922  1.00  0.00     0.114 H 
HETATM   48  C   LIG     1     -10.178 -20.749  -3.779  1.00  0.00    -0.047 C 
HETATM   49  H   LIG     1      -8.709 -21.991  -4.823  1.00  0.00     0.086 H 
BRANCH  48  50
HETATM   50  C   LIG     1      -9.387 -20.833  -2.475  1.00  0.00    -0.026 C 
HETATM   51  H   LIG     1      -9.889 -20.183  -1.742  1.00  0.00     0.042 H 
HETATM   52  H   LIG     1      -8.385 -20.409  -2.596  1.00  0.00     0.042 H 
BRANCH  50  53
HETATM   53  C   LIG     1      -9.244 -22.242  -1.864  1.00  0.00    -0.001 C 
HETATM   54  H   LIG     1      -8.968 -22.157  -0.806  1.00  0.00     0.064 H 
HETATM   55  H   LIG     1      -8.445 -22.782  -2.380  1.00  0.00     0.064 H 
BRANCH  53  56
HETATM   56  N   LIG     1     -10.462 -23.038  -1.875  1.00  0.00    -0.360 N 
HETATM   57  C   LIG     1     -10.456 -24.351  -2.289  1.00  0.00     0.221 C 
HETATM   58  O   LIG     1      -9.435 -24.907  -2.683  1.00  0.00    -0.273 OA
HETATM   59  H   LIG     1     -11.252 -22.698  -1.345  1.00  0.00     0.162 HD
BRANCH  57  60
HETATM   60  C   LIG     1     -11.831 -25.033  -2.306  1.00  0.00     0.024 C 
HETATM   61  H   LIG     1     -12.170 -25.050  -1.261  1.00  0.00     0.054 H 
HETATM   62  C   LIG     1     -12.842 -24.189  -3.108  1.00  0.00    -0.051 C 
HETATM   63  C   LIG     1     -12.641 -24.306  -4.625  1.00  0.00    -0.040 C 
HETATM   64  H   LIG     1     -12.772 -23.132  -2.824  1.00  0.00     0.034 H 
HETATM   65  H   LIG     1     -13.860 -24.504  -2.853  1.00  0.00     0.034 H 
HETATM   66  C   LIG     1     -12.557 -25.756  -5.103  1.00  0.00     0.035 C 
HETATM   67  H   LIG     1     -11.720 -23.785  -4.911  1.00  0.00     0.036 H 
HETATM   68  H   LIG     1     -13.469 -23.792  -5.126  1.00  0.00     0.036 H 
HETATM   69  H   LIG     1     -12.325 -25.779  -6.172  1.00  0.00     0.082 H 
HETATM   70  C   LIG     1     -11.495 -26.528  -4.326  1.00  0.00    -0.040 C 
HETATM   71  C   LIG     1     -11.784 -26.477  -2.825  1.00  0.00    -0.051 C 
HETATM   72  H   LIG     1     -10.502 -26.111  -4.531  1.00  0.00     0.036 H 
HETATM   73  H   LIG     1     -11.483 -27.577  -4.644  1.00  0.00     0.036 H 
HETATM   74  H   LIG     1     -11.041 -27.081  -2.296  1.00  0.00     0.034 H 
HETATM   75  H   LIG     1     -12.749 -26.960  -2.623  1.00  0.00     0.034 H 
BRANCH  66  76
HETATM   76  O   LIG     1     -13.803 -26.426  -4.917  1.00  0.00    -0.396 OA
HETATM   77  H   LIG     1     -14.515 -25.764  -4.893  1.00  0.00     0.210 HD
ENDBRANCH  66  76
ENDBRANCH  57  60
ENDBRANCH  53  56
ENDBRANCH  50  53
ENDBRANCH  48  50
ENDBRANCH   1  41
TORSDOF 14
ENDMDL
MODEL 5
REMARK minimizedAffinity -4.09155083
REMARK minimizedRMSD -1
REMARK  14 active torsions:
REMARK  status: ('A' for Active; 'I' for Inactive)
REMARK    1  A    between atoms: N_1  and  S_2 
REMARK    2  A    between atoms: S_2  and  C_5 
REMARK    3  A    between atoms: C_8  and  C_9 
REMARK    4  A    between atoms: C_9  and  C_10 
REMARK    5  A    between atoms: C_14  and  N_15 
REMARK       I    between atoms: N_15  and  C_16 
REMARK    6  A    between atoms: C_16  and  C_18 
REMARK    7  A    between atoms: C_18  and  C_19 
REMARK    8  A    between atoms: C_18  and  C_21 
REMARK    9  A    between atoms: C_19  and  S_20 
REMARK   10  A    between atoms: C_26  and  C_27 
REMARK   11  A    between atoms: C_27  and  C_28 
REMARK   12  A    between atoms: C_28  and  N_29 
REMARK       I    between atoms: N_29  and  C_30 
REMARK   13  A    between atoms: C_30  and  C_32 
REMARK   14  A    between atoms: C_36  and  O_38 
ROOT
HETATM    1  C   LIG     1     -20.793 -18.920  -7.027  1.00  0.00     0.059 C 
HETATM    2  H   LIG     1     -21.334 -19.784  -6.609  1.00  0.00     0.063 H 
ENDROOT
BRANCH   1   3
HETATM    3  C   LIG     1     -19.678 -18.605  -6.014  1.00  0.00     0.231 C 
HETATM    4  N   LIG     1     -18.793 -19.636  -5.726  1.00  0.00    -0.327 N 
HETATM    5  H   LIG     1     -18.996 -20.547  -6.123  1.00  0.00     0.169 HD
HETATM    6  O   LIG     1     -19.574 -17.447  -5.609  1.00  0.00    -0.272 OA
BRANCH   4   7
HETATM    7  C   LIG     1     -17.574 -19.543  -4.994  1.00  0.00     0.035 A 
HETATM    8  C   LIG     1     -16.363 -19.131  -5.553  1.00  0.00    -0.057 A 
HETATM    9  C   LIG     1     -15.182 -19.159  -4.803  1.00  0.00    -0.080 A 
HETATM   10  H   LIG     1     -16.286 -18.801  -6.584  1.00  0.00     0.086 H 
HETATM   11  C   LIG     1     -15.184 -19.638  -3.494  1.00  0.00    -0.076 A 
HETATM   12  H   LIG     1     -14.248 -18.847  -5.266  1.00  0.00     0.083 H 
HETATM   13  C   LIG     1     -16.377 -20.071  -2.903  1.00  0.00    -0.052 A 
HETATM   14  H   LIG     1     -14.238 -19.712  -2.963  1.00  0.00     0.084 H 
HETATM   15  C   LIG     1     -17.573 -19.971  -3.654  1.00  0.00    -0.051 A 
HETATM   16  H   LIG     1     -18.505 -20.287  -3.190  1.00  0.00     0.087 H 
BRANCH  13  17
HETATM   17  C   LIG     1     -16.364 -20.840  -1.594  1.00  0.00    -0.017 C 
HETATM   18  H   LIG     1     -16.582 -20.164  -0.758  1.00  0.00     0.047 H 
HETATM   19  H   LIG     1     -17.225 -21.523  -1.626  1.00  0.00     0.047 H 
BRANCH  17  20
HETATM   20  C   LIG     1     -15.132 -21.649  -1.238  1.00  0.00    -0.054 A 
HETATM   21  C   LIG     1     -14.958 -22.956  -1.722  1.00  0.00    -0.075 A 
HETATM   22  C   LIG     1     -13.782 -23.672  -1.453  1.00  0.00    -0.060 A 
HETATM   23  H   LIG     1     -15.729 -23.417  -2.337  1.00  0.00     0.084 H 
HETATM   24  C   LIG     1     -12.795 -23.077  -0.674  1.00  0.00     0.074 A 
HETATM   25  H   LIG     1     -13.656 -24.673  -1.855  1.00  0.00     0.085 H 
HETATM   26  C   LIG     1     -12.938 -21.778  -0.193  1.00  0.00    -0.060 A 
HETATM   27  C   LIG     1     -14.101 -21.067  -0.480  1.00  0.00    -0.075 A 
HETATM   28  H   LIG     1     -12.149 -21.315   0.396  1.00  0.00     0.085 H 
HETATM   29  H   LIG     1     -14.190 -20.043  -0.125  1.00  0.00     0.084 H 
BRANCH  24  30
HETATM   30  S   LIG     1     -11.293 -23.948  -0.300  1.00  0.00     0.239 S 
HETATM   31  O   LIG     1     -10.865 -24.673  -1.498  1.00  0.00    -0.206 OA
HETATM   32  O   LIG     1     -11.395 -24.570   0.984  1.00  0.00    -0.206 OA
BRANCH  30  33
HETATM   33  N   LIG     1     -10.194 -22.688  -0.120  1.00  0.00    -0.225 NA
HETATM   34  H   LIG     1      -9.476 -22.735  -0.837  1.00  0.00     0.136 HD
HETATM   35  H   LIG     1      -9.833 -22.687   0.840  1.00  0.00     0.136 HD
ENDBRANCH  30  33
ENDBRANCH  24  30
ENDBRANCH  17  20
ENDBRANCH  13  17
ENDBRANCH   4   7
ENDBRANCH   1   3
BRANCH   1  36
HETATM   36  C   LIG     1     -21.829 -17.752  -6.966  1.00  0.00    -0.011 C 
HETATM   37  H   LIG     1     -21.643 -17.047  -7.783  1.00  0.00     0.050 H 
HETATM   38  H   LIG     1     -21.694 -17.187  -6.035  1.00  0.00     0.050 H 
BRANCH  36  39
HETATM   39  S   LIG     1     -23.618 -18.170  -7.075  1.00  0.00    -0.181 SA
HETATM   40  H   LIG     1     -23.621 -18.642  -8.331  1.00  0.00     0.101 HD
ENDBRANCH  36  39
ENDBRANCH   1  36
BRANCH   1  41
HETATM   41  C   LIG     1     -20.319 -19.392  -8.405  1.00  0.00    -0.020 C 
HETATM   42  C   LIG     1     -19.534 -18.529  -9.186  1.00  0.00     0.009 C 
HETATM   43  N   LIG     1     -18.916 -18.841 -10.344  1.00  0.00    -0.273 NA
HETATM   44  H   LIG     1     -19.352 -17.495  -8.912  1.00  0.00     0.115 H 
HETATM   45  C   LIG     1     -19.113 -20.074 -10.807  1.00  0.00     0.002 C 
HETATM   46  C   LIG     1     -19.970 -20.970 -10.202  1.00  0.00    -0.059 C 
HETATM   47  H   LIG     1     -18.569 -20.338 -11.707  1.00  0.00     0.114 H 
HETATM   48  C   LIG     1     -20.611 -20.651  -8.988  1.00  0.00    -0.047 C 
HETATM   49  H   LIG     1     -20.119 -21.916 -10.705  1.00  0.00     0.086 H 
BRANCH  48  50
HETATM   50  C   LIG     1     -21.633 -21.665  -8.479  1.00  0.00    -0.026 C 
HETATM   51  H   LIG     1     -22.178 -21.195  -7.645  1.00  0.00     0.042 H 
HETATM   52  H   LIG     1     -21.136 -22.537  -8.040  1.00  0.00     0.042 H 
BRANCH  50  53
HETATM   53  C   LIG     1     -22.660 -22.167  -9.515  1.00  0.00    -0.001 C 
HETATM   54  H   LIG     1     -23.464 -22.709  -9.003  1.00  0.00     0.064 H 
HETATM   55  H   LIG     1     -22.170 -22.859 -10.205  1.00  0.00     0.064 H 
BRANCH  53  56
HETATM   56  N   LIG     1     -23.331 -21.116 -10.266  1.00  0.00    -0.360 N 
HETATM   57  C   LIG     1     -23.528 -21.220 -11.624  1.00  0.00     0.221 C 
HETATM   58  O   LIG     1     -23.136 -22.189 -12.269  1.00  0.00    -0.273 OA
HETATM   59  H   LIG     1     -23.866 -20.433  -9.747  1.00  0.00     0.162 HD
BRANCH  57  60
HETATM   60  C   LIG     1     -24.189 -20.000 -12.280  1.00  0.00     0.024 C 
HETATM   61  H   LIG     1     -25.166 -20.348 -12.645  1.00  0.00     0.054 H 
HETATM   62  C   LIG     1     -24.451 -18.900 -11.233  1.00  0.00    -0.051 C 
HETATM   63  C   LIG     1     -23.178 -18.138 -10.841  1.00  0.00    -0.040 C 
HETATM   64  H   LIG     1     -24.898 -19.329 -10.327  1.00  0.00     0.034 H 
HETATM   65  H   LIG     1     -25.189 -18.192 -11.627  1.00  0.00     0.034 H 
HETATM   66  C   LIG     1     -22.389 -17.639 -12.051  1.00  0.00     0.035 C 
HETATM   67  H   LIG     1     -22.532 -18.792 -10.243  1.00  0.00     0.036 H 
HETATM   68  H   LIG     1     -23.459 -17.295 -10.201  1.00  0.00     0.036 H 
HETATM   69  H   LIG     1     -21.450 -17.185 -11.718  1.00  0.00     0.082 H 
HETATM   70  C   LIG     1     -22.096 -18.779 -13.022  1.00  0.00    -0.040 C 
HETATM   71  C   LIG     1     -23.394 -19.449 -13.472  1.00  0.00    -0.051 C 
HETATM   72  H   LIG     1     -21.437 -19.517 -12.548  1.00  0.00     0.036 H 
HETATM   73  H   LIG     1     -21.575 -18.395 -13.907  1.00  0.00     0.036 H 
HETATM   74  H   LIG     1     -23.162 -20.225 -14.207  1.00  0.00     0.034 H 
HETATM   75  H   LIG     1     -24.015 -18.718 -14.007  1.00  0.00     0.034 H 
BRANCH  66  76
HETATM   76  O   LIG     1     -23.122 -16.642 -12.761  1.00  0.00    -0.396 OA
HETATM   77  H   LIG     1     -23.758 -16.228 -12.153  1.00  0.00     0.210 HD
ENDBRANCH  66  76
ENDBRANCH  57  60
ENDBRANCH  53  56
ENDBRANCH  50  53
ENDBRANCH  48  50
ENDBRANCH   1  41
TORSDOF 14
ENDMDL
MODEL 6
REMARK minimizedAffinity -4.06096506
REMARK minimizedRMSD -1
REMARK  14 active torsions:
REMARK  status: ('A' for Active; 'I' for Inactive)
REMARK    1  A    between atoms: N_1  and  S_2 
REMARK    2  A    between atoms: S_2  and  C_5 
REMARK    3  A    between atoms: C_8  and  C_9 
REMARK    4  A    between atoms: C_9  and  C_10 
REMARK    5  A    between atoms: C_14  and  N_15 
REMARK       I    between atoms: N_15  and  C_16 
REMARK    6  A    between atoms: C_16  and  C_18 
REMARK    7  A    between atoms: C_18  and  C_19 
REMARK    8  A    between atoms: C_18  and  C_21 
REMARK    9  A    between atoms: C_19  and  S_20 
REMARK   10  A    between atoms: C_26  and  C_27 
REMARK   11  A    between atoms: C_27  and  C_28 
REMARK   12  A    between atoms: C_28  and  N_29 
REMARK       I    between atoms: N_29  and  C_30 
REMARK   13  A    between atoms: C_30  and  C_32 
REMARK   14  A    between atoms: C_36  and  O_38 
ROOT
HETATM    1  C   LIG     1     -21.670 -19.025  -6.900  1.00  0.00     0.059 C 
HETATM    2  H   LIG     1     -22.119 -19.591  -6.069  1.00  0.00     0.063 H 
ENDROOT
BRANCH   1   3
HETATM    3  C   LIG     1     -20.271 -18.614  -6.408  1.00  0.00     0.231 C 
HETATM    4  N   LIG     1     -19.319 -19.622  -6.335  1.00  0.00    -0.327 N 
HETATM    5  H   LIG     1     -19.632 -20.571  -6.513  1.00  0.00     0.169 HD
HETATM    6  O   LIG     1     -20.053 -17.417  -6.216  1.00  0.00    -0.272 OA
BRANCH   4   7
HETATM    7  C   LIG     1     -17.920 -19.469  -6.112  1.00  0.00     0.035 A 
HETATM    8  C   LIG     1     -16.962 -19.533  -7.124  1.00  0.00    -0.057 A 
HETATM    9  C   LIG     1     -15.596 -19.475  -6.822  1.00  0.00    -0.080 A 
HETATM   10  H   LIG     1     -17.233 -19.654  -8.168  1.00  0.00     0.086 H 
HETATM   11  C   LIG     1     -15.165 -19.393  -5.499  1.00  0.00    -0.076 A 
HETATM   12  H   LIG     1     -14.868 -19.542  -7.628  1.00  0.00     0.083 H 
HETATM   13  C   LIG     1     -16.096 -19.338  -4.456  1.00  0.00    -0.052 A 
HETATM   14  H   LIG     1     -14.097 -19.420  -5.296  1.00  0.00     0.084 H 
HETATM   15  C   LIG     1     -17.473 -19.329  -4.785  1.00  0.00    -0.051 A 
HETATM   16  H   LIG     1     -18.199 -19.265  -3.977  1.00  0.00     0.087 H 
BRANCH  13  17
HETATM   17  C   LIG     1     -15.661 -19.521  -3.013  1.00  0.00    -0.017 C 
HETATM   18  H   LIG     1     -14.701 -19.018  -2.843  1.00  0.00     0.047 H 
HETATM   19  H   LIG     1     -16.378 -18.958  -2.398  1.00  0.00     0.047 H 
BRANCH  17  20
HETATM   20  C   LIG     1     -15.561 -20.927  -2.456  1.00  0.00    -0.054 A 
HETATM   21  C   LIG     1     -14.446 -21.736  -2.727  1.00  0.00    -0.075 A 
HETATM   22  C   LIG     1     -14.322 -23.008  -2.147  1.00  0.00    -0.060 A 
HETATM   23  H   LIG     1     -13.649 -21.370  -3.372  1.00  0.00     0.084 H 
HETATM   24  C   LIG     1     -15.338 -23.471  -1.317  1.00  0.00     0.074 A 
HETATM   25  H   LIG     1     -13.442 -23.611  -2.350  1.00  0.00     0.085 H 
HETATM   26  C   LIG     1     -16.447 -22.683  -1.022  1.00  0.00    -0.060 A 
HETATM   27  C   LIG     1     -16.554 -21.414  -1.587  1.00  0.00    -0.075 A 
HETATM   28  H   LIG     1     -17.224 -23.047  -0.353  1.00  0.00     0.085 H 
HETATM   29  H   LIG     1     -17.410 -20.795  -1.327  1.00  0.00     0.084 H 
BRANCH  24  30
HETATM   30  S   LIG     1     -15.229 -25.078  -0.567  1.00  0.00     0.239 S 
HETATM   31  O   LIG     1     -13.826 -25.498  -0.568  1.00  0.00    -0.206 OA
HETATM   32  O   LIG     1     -16.286 -25.914  -1.046  1.00  0.00    -0.206 OA
BRANCH  30  33
HETATM   33  N   LIG     1     -15.596 -24.740   1.039  1.00  0.00    -0.225 NA
HETATM   34  H   LIG     1     -14.799 -24.937   1.636  1.00  0.00     0.136 HD
HETATM   35  H   LIG     1     -16.454 -25.235   1.302  1.00  0.00     0.136 HD
ENDBRANCH  30  33
ENDBRANCH  24  30
ENDBRANCH  17  20
ENDBRANCH  13  17
ENDBRANCH   4   7
ENDBRANCH   1   3
BRANCH   1  36
HETATM   36  C   LIG     1     -22.537 -17.728  -6.993  1.00  0.00    -0.011 C 
HETATM   37  H   LIG     1     -22.261 -17.160  -7.888  1.00  0.00     0.050 H 
HETATM   38  H   LIG     1     -22.321 -17.077  -6.137  1.00  0.00     0.050 H 
BRANCH  36  39
HETATM   39  S   LIG     1     -24.367 -17.909  -7.069  1.00  0.00    -0.181 SA
HETATM   40  H   LIG     1     -24.442 -18.527  -8.258  1.00  0.00     0.101 HD
ENDBRANCH  36  39
ENDBRANCH   1  36
BRANCH   1  41
HETATM   41  C   LIG     1     -21.694 -19.994  -8.086  1.00  0.00    -0.020 C 
HETATM   42  C   LIG     1     -22.349 -21.227  -7.943  1.00  0.00     0.009 C 
HETATM   43  N   LIG     1     -22.589 -22.122  -8.924  1.00  0.00    -0.273 NA
HETATM   44  H   LIG     1     -22.733 -21.579  -6.991  1.00  0.00     0.115 H 
HETATM   45  C   LIG     1     -22.115 -21.818 -10.131  1.00  0.00     0.002 C 
HETATM   46  C   LIG     1     -21.339 -20.703 -10.370  1.00  0.00    -0.059 C 
HETATM   47  H   LIG     1     -22.359 -22.513 -10.927  1.00  0.00     0.114 H 
HETATM   48  C   LIG     1     -21.092 -19.763  -9.349  1.00  0.00    -0.047 C 
HETATM   49  H   LIG     1     -20.938 -20.594 -11.368  1.00  0.00     0.086 H 
BRANCH  48  50
HETATM   50  C   LIG     1     -20.118 -18.637  -9.691  1.00  0.00    -0.026 C 
HETATM   51  H   LIG     1     -19.404 -18.553  -8.857  1.00  0.00     0.042 H 
HETATM   52  H   LIG     1     -20.632 -17.671  -9.726  1.00  0.00     0.042 H 
BRANCH  50  53
HETATM   53  C   LIG     1     -19.323 -18.808 -11.001  1.00  0.00    -0.001 C 
HETATM   54  H   LIG     1     -19.369 -17.881 -11.583  1.00  0.00     0.064 H 
HETATM   55  H   LIG     1     -19.774 -19.606 -11.598  1.00  0.00     0.064 H 
BRANCH  53  56
HETATM   56  N   LIG     1     -17.903 -19.072 -10.822  1.00  0.00    -0.360 N 
HETATM   57  C   LIG     1     -17.411 -20.358 -10.798  1.00  0.00     0.221 C 
HETATM   58  O   LIG     1     -18.140 -21.339 -10.909  1.00  0.00    -0.273 OA
HETATM   59  H   LIG     1     -17.259 -18.307 -10.965  1.00  0.00     0.162 HD
BRANCH  57  60
HETATM   60  C   LIG     1     -15.903 -20.471 -10.534  1.00  0.00     0.024 C 
HETATM   61  H   LIG     1     -15.736 -20.018  -9.547  1.00  0.00     0.054 H 
HETATM   62  C   LIG     1     -15.482 -21.951 -10.441  1.00  0.00    -0.051 C 
HETATM   63  C   LIG     1     -15.406 -22.635 -11.813  1.00  0.00    -0.040 C 
HETATM   64  H   LIG     1     -16.180 -22.512  -9.807  1.00  0.00     0.034 H 
HETATM   65  H   LIG     1     -14.505 -22.020  -9.948  1.00  0.00     0.034 H 
HETATM   66  C   LIG     1     -14.583 -21.840 -12.827  1.00  0.00     0.035 C 
HETATM   67  H   LIG     1     -16.419 -22.771 -12.209  1.00  0.00     0.036 H 
HETATM   68  H   LIG     1     -14.977 -23.634 -11.682  1.00  0.00     0.036 H 
HETATM   69  H   LIG     1     -14.638 -22.324 -13.808  1.00  0.00     0.082 H 
HETATM   70  C   LIG     1     -15.085 -20.402 -12.932  1.00  0.00    -0.040 C 
HETATM   71  C   LIG     1     -15.050 -19.719 -11.565  1.00  0.00    -0.051 C 
HETATM   72  H   LIG     1     -16.106 -20.388 -13.332  1.00  0.00     0.036 H 
HETATM   73  H   LIG     1     -14.454 -19.833 -13.624  1.00  0.00     0.036 H 
HETATM   74  H   LIG     1     -15.361 -18.677 -11.676  1.00  0.00     0.034 H 
HETATM   75  H   LIG     1     -14.013 -19.676 -11.205  1.00  0.00     0.034 H 
BRANCH  66  76
HETATM   76  O   LIG     1     -13.210 -21.793 -12.444  1.00  0.00    -0.396 OA
HETATM   77  H   LIG     1     -13.018 -22.552 -11.869  1.00  0.00     0.210 HD
ENDBRANCH  66  76
ENDBRANCH  57  60
ENDBRANCH  53  56
ENDBRANCH  50  53
ENDBRANCH  48  50
ENDBRANCH   1  41
TORSDOF 14
ENDMDL
MODEL 7
REMARK minimizedAffinity -3.9883604
REMARK minimizedRMSD -1
REMARK  14 active torsions:
REMARK  status: ('A' for Active; 'I' for Inactive)
REMARK    1  A    between atoms: N_1  and  S_2 
REMARK    2  A    between atoms: S_2  and  C_5 
REMARK    3  A    between atoms: C_8  and  C_9 
REMARK    4  A    between atoms: C_9  and  C_10 
REMARK    5  A    between atoms: C_14  and  N_15 
REMARK       I    between atoms: N_15  and  C_16 
REMARK    6  A    between atoms: C_16  and  C_18 
REMARK    7  A    between atoms: C_18  and  C_19 
REMARK    8  A    between atoms: C_18  and  C_21 
REMARK    9  A    between atoms: C_19  and  S_20 
REMARK   10  A    between atoms: C_26  and  C_27 
REMARK   11  A    between atoms: C_27  and  C_28 
REMARK   12  A    between atoms: C_28  and  N_29 
REMARK       I    between atoms: N_29  and  C_30 
REMARK   13  A    between atoms: C_30  and  C_32 
REMARK   14  A    between atoms: C_36  and  O_38 
ROOT
HETATM    1  C   LIG     1     -20.593 -18.938  -6.745  1.00  0.00     0.059 C 
HETATM    2  H   LIG     1     -21.082 -19.834  -6.331  1.00  0.00     0.063 H 
ENDROOT
BRANCH   1   3
HETATM    3  C   LIG     1     -19.497 -18.564  -5.730  1.00  0.00     0.231 C 
HETATM    4  N   LIG     1     -18.688 -19.599  -5.282  1.00  0.00    -0.327 N 
HETATM    5  H   LIG     1     -18.933 -20.540  -5.574  1.00  0.00     0.169 HD
HETATM    6  O   LIG     1     -19.337 -17.372  -5.465  1.00  0.00    -0.272 OA
BRANCH   4   7
HETATM    7  C   LIG     1     -17.492 -19.485  -4.515  1.00  0.00     0.035 A 
HETATM    8  C   LIG     1     -16.341 -18.838  -4.966  1.00  0.00    -0.057 A 
HETATM    9  C   LIG     1     -15.168 -18.851  -4.202  1.00  0.00    -0.080 A 
HETATM   10  H   LIG     1     -16.303 -18.329  -5.922  1.00  0.00     0.086 H 
HETATM   11  C   LIG     1     -15.114 -19.545  -2.994  1.00  0.00    -0.076 A 
HETATM   12  H   LIG     1     -14.279 -18.352  -4.582  1.00  0.00     0.083 H 
HETATM   13  C   LIG     1     -16.245 -20.216  -2.516  1.00  0.00    -0.052 A 
HETATM   14  H   LIG     1     -14.168 -19.593  -2.461  1.00  0.00     0.084 H 
HETATM   15  C   LIG     1     -17.442 -20.135  -3.268  1.00  0.00    -0.051 A 
HETATM   16  H   LIG     1     -18.329 -20.638  -2.888  1.00  0.00     0.087 H 
BRANCH  13  17
HETATM   17  C   LIG     1     -16.141 -21.193  -1.358  1.00  0.00    -0.017 C 
HETATM   18  H   LIG     1     -15.484 -20.784  -0.580  1.00  0.00     0.047 H 
HETATM   19  H   LIG     1     -17.135 -21.226  -0.888  1.00  0.00     0.047 H 
BRANCH  17  20
HETATM   20  C   LIG     1     -15.705 -22.615  -1.644  1.00  0.00    -0.054 A 
HETATM   21  C   LIG     1     -16.516 -23.707  -1.291  1.00  0.00    -0.075 A 
HETATM   22  C   LIG     1     -16.145 -25.018  -1.627  1.00  0.00    -0.060 A 
HETATM   23  H   LIG     1     -17.460 -23.541  -0.774  1.00  0.00     0.084 H 
HETATM   24  C   LIG     1     -14.942 -25.226  -2.295  1.00  0.00     0.074 A 
HETATM   25  H   LIG     1     -16.795 -25.847  -1.366  1.00  0.00     0.085 H 
HETATM   26  C   LIG     1     -14.127 -24.161  -2.667  1.00  0.00    -0.060 A 
HETATM   27  C   LIG     1     -14.512 -22.861  -2.347  1.00  0.00    -0.075 A 
HETATM   28  H   LIG     1     -13.200 -24.335  -3.209  1.00  0.00     0.085 H 
HETATM   29  H   LIG     1     -13.883 -22.034  -2.668  1.00  0.00     0.084 H 
BRANCH  24  30
HETATM   30  S   LIG     1     -14.427 -26.869  -2.733  1.00  0.00     0.239 S 
HETATM   31  O   LIG     1     -15.324 -27.827  -2.085  1.00  0.00    -0.206 OA
HETATM   32  O   LIG     1     -13.002 -26.971  -2.656  1.00  0.00    -0.206 OA
BRANCH  30  33
HETATM   33  N   LIG     1     -14.809 -26.929  -4.369  1.00  0.00    -0.225 NA
HETATM   34  H   LIG     1     -15.526 -27.627  -4.542  1.00  0.00     0.136 HD
HETATM   35  H   LIG     1     -13.950 -27.062  -4.914  1.00  0.00     0.136 HD
ENDBRANCH  30  33
ENDBRANCH  24  30
ENDBRANCH  17  20
ENDBRANCH  13  17
ENDBRANCH   4   7
ENDBRANCH   1   3
BRANCH   1  36
HETATM   36  C   LIG     1     -21.696 -17.833  -6.677  1.00  0.00    -0.011 C 
HETATM   37  H   LIG     1     -21.412 -16.985  -7.309  1.00  0.00     0.050 H 
HETATM   38  H   LIG     1     -21.766 -17.443  -5.654  1.00  0.00     0.050 H 
BRANCH  36  39
HETATM   39  S   LIG     1     -23.406 -18.279  -7.190  1.00  0.00    -0.181 SA
HETATM   40  H   LIG     1     -23.154 -18.514  -8.487  1.00  0.00     0.101 HD
ENDBRANCH  36  39
ENDBRANCH   1  36
BRANCH   1  41
HETATM   41  C   LIG     1     -20.093 -19.373  -8.125  1.00  0.00    -0.020 C 
HETATM   42  C   LIG     1     -19.169 -18.561  -8.801  1.00  0.00     0.009 C 
HETATM   43  N   LIG     1     -18.521 -18.869  -9.944  1.00  0.00    -0.273 NA
HETATM   44  H   LIG     1     -18.887 -17.575  -8.446  1.00  0.00     0.115 H 
HETATM   45  C   LIG     1     -18.829 -20.039 -10.502  1.00  0.00     0.002 C 
HETATM   46  C   LIG     1     -19.818 -20.864 -10.008  1.00  0.00    -0.059 C 
HETATM   47  H   LIG     1     -18.266 -20.306 -11.389  1.00  0.00     0.114 H 
HETATM   48  C   LIG     1     -20.491 -20.550  -8.811  1.00  0.00    -0.047 C 
HETATM   49  H   LIG     1     -20.043 -21.752 -10.584  1.00  0.00     0.086 H 
BRANCH  48  50
HETATM   50  C   LIG     1     -21.651 -21.466  -8.428  1.00  0.00    -0.026 C 
HETATM   51  H   LIG     1     -22.331 -20.888  -7.783  1.00  0.00     0.042 H 
HETATM   52  H   LIG     1     -21.305 -22.298  -7.807  1.00  0.00     0.042 H 
BRANCH  50  53
HETATM   53  C   LIG     1     -22.466 -22.048  -9.602  1.00  0.00    -0.001 C 
HETATM   54  H   LIG     1     -22.950 -22.980  -9.288  1.00  0.00     0.064 H 
HETATM   55  H   LIG     1     -21.793 -22.279 -10.432  1.00  0.00     0.064 H 
BRANCH  53  56
HETATM   56  N   LIG     1     -23.551 -21.198 -10.071  1.00  0.00    -0.360 N 
HETATM   57  C   LIG     1     -24.658 -21.727 -10.694  1.00  0.00     0.221 C 
HETATM   58  O   LIG     1     -24.778 -22.932 -10.900  1.00  0.00    -0.273 OA
HETATM   59  H   LIG     1     -23.598 -20.254  -9.714  1.00  0.00     0.162 HD
BRANCH  57  60
HETATM   60  C   LIG     1     -25.681 -20.695 -11.189  1.00  0.00     0.024 C 
HETATM   61  H   LIG     1     -25.301 -20.336 -12.155  1.00  0.00     0.054 H 
HETATM   62  C   LIG     1     -27.044 -21.368 -11.447  1.00  0.00    -0.051 C 
HETATM   63  C   LIG     1     -27.810 -21.674 -10.154  1.00  0.00    -0.040 C 
HETATM   64  H   LIG     1     -26.912 -22.302 -12.007  1.00  0.00     0.034 H 
HETATM   65  H   LIG     1     -27.654 -20.718 -12.085  1.00  0.00     0.034 H 
HETATM   66  C   LIG     1     -27.905 -20.466  -9.221  1.00  0.00     0.035 C 
HETATM   67  H   LIG     1     -27.314 -22.493  -9.621  1.00  0.00     0.036 H 
HETATM   68  H   LIG     1     -28.814 -22.024 -10.418  1.00  0.00     0.036 H 
HETATM   69  H   LIG     1     -28.380 -20.762  -8.280  1.00  0.00     0.082 H 
HETATM   70  C   LIG     1     -26.524 -19.881  -8.941  1.00  0.00    -0.040 C 
HETATM   71  C   LIG     1     -25.830 -19.492 -10.247  1.00  0.00    -0.051 C 
HETATM   72  H   LIG     1     -25.912 -20.606  -8.393  1.00  0.00     0.036 H 
HETATM   73  H   LIG     1     -26.614 -18.986  -8.313  1.00  0.00     0.036 H 
HETATM   74  H   LIG     1     -24.867 -19.026 -10.018  1.00  0.00     0.034 H 
HETATM   75  H   LIG     1     -26.416 -18.714 -10.754  1.00  0.00     0.034 H 
BRANCH  66  76
HETATM   76  O   LIG     1     -28.704 -19.436  -9.802  1.00  0.00    -0.396 OA
HETATM   77  H   LIG     1     -29.307 -19.834 -10.451  1.00  0.00     0.210 HD
ENDBRANCH  66  76
ENDBRANCH  57  60
ENDBRANCH  53  56
ENDBRANCH  50  53
ENDBRANCH  48  50
ENDBRANCH   1  41
TORSDOF 14
ENDMDL
MODEL 8
REMARK minimizedAffinity -3.80226755
REMARK minimizedRMSD -1
REMARK  14 active torsions:
REMARK  status: ('A' for Active; 'I' for Inactive)
REMARK    1  A    between atoms: N_1  and  S_2 
REMARK    2  A    between atoms: S_2  and  C_5 
REMARK    3  A    between atoms: C_8  and  C_9 
REMARK    4  A    between atoms: C_9  and  C_10 
REMARK    5  A    between atoms: C_14  and  N_15 
REMARK       I    between atoms: N_15  and  C_16 
REMARK    6  A    between atoms: C_16  and  C_18 
REMARK    7  A    between atoms: C_18  and  C_19 
REMARK    8  A    between atoms: C_18  and  C_21 
REMARK    9  A    between atoms: C_19  and  S_20 
REMARK   10  A    between atoms: C_26  and  C_27 
REMARK   11  A    between atoms: C_27  and  C_28 
REMARK   12  A    between atoms: C_28  and  N_29 
REMARK       I    between atoms: N_29  and  C_30 
REMARK   13  A    between atoms: C_30  and  C_32 
REMARK   14  A    between atoms: C_36  and  O_38 
ROOT
HETATM    1  C   LIG     1     -20.935 -18.966  -7.010  1.00  0.00     0.059 C 
HETATM    2  H   LIG     1     -21.438 -19.858  -6.606  1.00  0.00     0.063 H 
ENDROOT
BRANCH   1   3
HETATM    3  C   LIG     1     -19.824 -18.629  -6.001  1.00  0.00     0.231 C 
HETATM    4  N   LIG     1     -18.902 -19.633  -5.735  1.00  0.00    -0.327 N 
HETATM    5  H   LIG     1     -19.078 -20.545  -6.145  1.00  0.00     0.169 HD
HETATM    6  O   LIG     1     -19.756 -17.474  -5.578  1.00  0.00    -0.272 OA
BRANCH   4   7
HETATM    7  C   LIG     1     -17.681 -19.510  -5.011  1.00  0.00     0.035 A 
HETATM    8  C   LIG     1     -16.500 -19.013  -5.561  1.00  0.00    -0.057 A 
HETATM    9  C   LIG     1     -15.310 -19.014  -4.823  1.00  0.00    -0.080 A 
HETATM   10  H   LIG     1     -16.450 -18.636  -6.577  1.00  0.00     0.086 H 
HETATM   11  C   LIG     1     -15.274 -19.548  -3.536  1.00  0.00    -0.076 A 
HETATM   12  H   LIG     1     -14.398 -18.635  -5.280  1.00  0.00     0.083 H 
HETATM   13  C   LIG     1     -16.437 -20.066  -2.955  1.00  0.00    -0.052 A 
HETATM   14  H   LIG     1     -14.319 -19.597  -3.017  1.00  0.00     0.084 H 
HETATM   15  C   LIG     1     -17.644 -19.995  -3.690  1.00  0.00    -0.051 A 
HETATM   16  H   LIG     1     -18.555 -20.378  -3.232  1.00  0.00     0.087 H 
BRANCH  13  17
HETATM   17  C   LIG     1     -16.371 -20.890  -1.681  1.00  0.00    -0.017 C 
HETATM   18  H   LIG     1     -16.633 -20.268  -0.816  1.00  0.00     0.047 H 
HETATM   19  H   LIG     1     -17.184 -21.627  -1.745  1.00  0.00     0.047 H 
BRANCH  17  20
HETATM   20  C   LIG     1     -15.088 -21.629  -1.358  1.00  0.00    -0.054 A 
HETATM   21  C   LIG     1     -14.071 -21.020  -0.605  1.00  0.00    -0.075 A 
HETATM   22  C   LIG     1     -12.917 -21.733  -0.243  1.00  0.00    -0.060 A 
HETATM   23  H   LIG     1     -14.182 -19.990  -0.269  1.00  0.00     0.084 H 
HETATM   24  C   LIG     1     -12.781 -23.051  -0.667  1.00  0.00     0.074 A 
HETATM   25  H   LIG     1     -12.152 -21.252   0.359  1.00  0.00     0.085 H 
HETATM   26  C   LIG     1     -13.780 -23.681  -1.403  1.00  0.00    -0.060 A 
HETATM   27  C   LIG     1     -14.931 -22.973  -1.742  1.00  0.00    -0.075 A 
HETATM   28  H   LIG     1     -13.672 -24.720  -1.709  1.00  0.00     0.085 H 
HETATM   29  H   LIG     1     -15.718 -23.483  -2.292  1.00  0.00     0.084 H 
BRANCH  24  30
HETATM   30  S   LIG     1     -11.335 -23.991  -0.240  1.00  0.00     0.239 S 
HETATM   31  O   LIG     1     -10.871 -24.699  -1.434  1.00  0.00    -0.206 OA
HETATM   32  O   LIG     1     -11.529 -24.642   1.018  1.00  0.00    -0.206 OA
BRANCH  30  33
HETATM   33  N   LIG     1     -10.201 -22.779   0.033  1.00  0.00    -0.225 NA
HETATM   34  H   LIG     1      -9.448 -22.836  -0.646  1.00  0.00     0.136 HD
HETATM   35  H   LIG     1      -9.892 -22.818   1.010  1.00  0.00     0.136 HD
ENDBRANCH  30  33
ENDBRANCH  24  30
ENDBRANCH  17  20
ENDBRANCH  13  17
ENDBRANCH   4   7
ENDBRANCH   1   3
BRANCH   1  36
HETATM   36  C   LIG     1     -22.015 -17.840  -6.917  1.00  0.00    -0.011 C 
HETATM   37  H   LIG     1     -21.772 -17.033  -7.616  1.00  0.00     0.050 H 
HETATM   38  H   LIG     1     -21.997 -17.393  -5.915  1.00  0.00     0.050 H 
BRANCH  36  39
HETATM   39  S   LIG     1     -23.766 -18.284  -7.266  1.00  0.00    -0.181 SA
HETATM   40  H   LIG     1     -23.623 -18.594  -8.564  1.00  0.00     0.101 HD
ENDBRANCH  36  39
ENDBRANCH   1  36
BRANCH   1  41
HETATM   41  C   LIG     1     -20.456 -19.391  -8.402  1.00  0.00    -0.020 C 
HETATM   42  C   LIG     1     -19.611 -18.532  -9.121  1.00  0.00     0.009 C 
HETATM   43  N   LIG     1     -18.984 -18.816 -10.282  1.00  0.00    -0.273 NA
HETATM   44  H   LIG     1     -19.382 -17.524  -8.791  1.00  0.00     0.115 H 
HETATM   45  C   LIG     1     -19.234 -20.012 -10.812  1.00  0.00     0.002 C 
HETATM   46  C   LIG     1     -20.149 -20.891 -10.272  1.00  0.00    -0.059 C 
HETATM   47  H   LIG     1     -18.686 -20.257 -11.715  1.00  0.00     0.114 H 
HETATM   48  C   LIG     1     -20.800 -20.602  -9.056  1.00  0.00    -0.047 C 
HETATM   49  H   LIG     1     -20.336 -21.801 -10.826  1.00  0.00     0.086 H 
BRANCH  48  50
HETATM   50  C   LIG     1     -21.884 -21.585  -8.619  1.00  0.00    -0.026 C 
HETATM   51  H   LIG     1     -22.593 -21.034  -7.982  1.00  0.00     0.042 H 
HETATM   52  H   LIG     1     -21.467 -22.367  -7.975  1.00  0.00     0.042 H 
BRANCH  50  53
HETATM   53  C   LIG     1     -22.673 -22.266  -9.756  1.00  0.00    -0.001 C 
HETATM   54  H   LIG     1     -23.114 -23.200  -9.389  1.00  0.00     0.064 H 
HETATM   55  H   LIG     1     -21.991 -22.513 -10.574  1.00  0.00     0.064 H 
BRANCH  53  56
HETATM   56  N   LIG     1     -23.795 -21.493 -10.267  1.00  0.00    -0.360 N 
HETATM   57  C   LIG     1     -24.883 -22.106 -10.846  1.00  0.00     0.221 C 
HETATM   58  O   LIG     1     -24.954 -23.325 -10.976  1.00  0.00    -0.273 OA
HETATM   59  H   LIG     1     -23.880 -20.531  -9.969  1.00  0.00     0.162 HD
BRANCH  57  60
HETATM   60  C   LIG     1     -25.952 -21.150 -11.395  1.00  0.00     0.024 C 
HETATM   61  H   LIG     1     -25.639 -20.908 -12.420  1.00  0.00     0.054 H 
HETATM   62  C   LIG     1     -27.317 -21.861 -11.481  1.00  0.00    -0.051 C 
HETATM   63  C   LIG     1     -27.996 -22.012 -10.114  1.00  0.00    -0.040 C 
HETATM   64  H   LIG     1     -27.206 -22.855 -11.932  1.00  0.00     0.034 H 
HETATM   65  H   LIG     1     -27.977 -21.297 -12.152  1.00  0.00     0.034 H 
HETATM   66  C   LIG     1     -28.051 -20.701  -9.330  1.00  0.00     0.035 C 
HETATM   67  H   LIG     1     -27.454 -22.757  -9.519  1.00  0.00     0.036 H 
HETATM   68  H   LIG     1     -29.008 -22.401 -10.269  1.00  0.00     0.036 H 
HETATM   69  H   LIG     1     -28.461 -20.885  -8.331  1.00  0.00     0.082 H 
HETATM   70  C   LIG     1     -26.664 -20.075  -9.212  1.00  0.00    -0.040 C 
HETATM   71  C   LIG     1     -26.060 -19.843 -10.598  1.00  0.00    -0.051 C 
HETATM   72  H   LIG     1     -26.007 -20.724  -8.621  1.00  0.00     0.036 H 
HETATM   73  H   LIG     1     -26.729 -19.112  -8.693  1.00  0.00     0.036 H 
HETATM   74  H   LIG     1     -25.093 -19.345 -10.489  1.00  0.00     0.034 H 
HETATM   75  H   LIG     1     -26.689 -19.137 -11.156  1.00  0.00     0.034 H 
BRANCH  66  76
HETATM   76  O   LIG     1     -28.901 -19.756  -9.978  1.00  0.00    -0.396 OA
HETATM   77  H   LIG     1     -29.537 -20.235 -10.534  1.00  0.00     0.210 HD
ENDBRANCH  66  76
ENDBRANCH  57  60
ENDBRANCH  53  56
ENDBRANCH  50  53
ENDBRANCH  48  50
ENDBRANCH   1  41
TORSDOF 14
ENDMDL
MODEL 9
REMARK minimizedAffinity -3.55217981
REMARK minimizedRMSD -1
REMARK  14 active torsions:
REMARK  status: ('A' for Active; 'I' for Inactive)
REMARK    1  A    between atoms: N_1  and  S_2 
REMARK    2  A    between atoms: S_2  and  C_5 
REMARK    3  A    between atoms: C_8  and  C_9 
REMARK    4  A    between atoms: C_9  and  C_10 
REMARK    5  A    between atoms: C_14  and  N_15 
REMARK       I    between atoms: N_15  and  C_16 
REMARK    6  A    between atoms: C_16  and  C_18 
REMARK    7  A    between atoms: C_18  and  C_19 
REMARK    8  A    between atoms: C_18  and  C_21 
REMARK    9  A    between atoms: C_19  and  S_20 
REMARK   10  A    between atoms: C_26  and  C_27 
REMARK   11  A    between atoms: C_27  and  C_28 
REMARK   12  A    between atoms: C_28  and  N_29 
REMARK       I    between atoms: N_29  and  C_30 
REMARK   13  A    between atoms: C_30  and  C_32 
REMARK   14  A    between atoms: C_36  and  O_38 
ROOT
HETATM    1  C   LIG     1     -19.012 -18.162  -5.804  1.00  0.00     0.059 C 
HETATM    2  H   LIG     1     -19.757 -18.960  -5.946  1.00  0.00     0.063 H 
ENDROOT
BRANCH   1   3
HETATM    3  C   LIG     1     -18.373 -18.438  -4.431  1.00  0.00     0.231 C 
HETATM    4  N   LIG     1     -17.680 -19.634  -4.299  1.00  0.00    -0.327 N 
HETATM    5  H   LIG     1     -17.724 -20.285  -5.077  1.00  0.00     0.169 HD
HETATM    6  O   LIG     1     -18.421 -17.549  -3.581  1.00  0.00    -0.272 OA
BRANCH   4   7
HETATM    7  C   LIG     1     -16.839 -20.026  -3.218  1.00  0.00     0.035 A 
HETATM    8  C   LIG     1     -15.512 -19.617  -3.080  1.00  0.00    -0.057 A 
HETATM    9  C   LIG     1     -14.711 -20.119  -2.047  1.00  0.00    -0.080 A 
HETATM   10  H   LIG     1     -15.048 -18.922  -3.771  1.00  0.00     0.086 H 
HETATM   11  C   LIG     1     -15.212 -21.071  -1.160  1.00  0.00    -0.076 A 
HETATM   12  H   LIG     1     -13.675 -19.796  -1.970  1.00  0.00     0.083 H 
HETATM   13  C   LIG     1     -16.535 -21.514  -1.274  1.00  0.00    -0.052 A 
HETATM   14  H   LIG     1     -14.543 -21.492  -0.413  1.00  0.00     0.084 H 
HETATM   15  C   LIG     1     -17.349 -20.944  -2.281  1.00  0.00    -0.051 A 
HETATM   16  H   LIG     1     -18.385 -21.271  -2.359  1.00  0.00     0.087 H 
BRANCH  13  17
HETATM   17  C   LIG     1     -17.018 -22.731  -0.505  1.00  0.00    -0.017 C 
HETATM   18  H   LIG     1     -17.103 -22.492   0.563  1.00  0.00     0.047 H 
HETATM   19  H   LIG     1     -18.053 -22.913  -0.829  1.00  0.00     0.047 H 
BRANCH  17  20
HETATM   20  C   LIG     1     -16.246 -24.028  -0.637  1.00  0.00    -0.054 A 
HETATM   21  C   LIG     1     -15.442 -24.504   0.412  1.00  0.00    -0.075 A 
HETATM   22  C   LIG     1     -14.790 -25.743   0.316  1.00  0.00    -0.060 A 
HETATM   23  H   LIG     1     -15.340 -23.923   1.328  1.00  0.00     0.084 H 
HETATM   24  C   LIG     1     -14.930 -26.486  -0.853  1.00  0.00     0.074 A 
HETATM   25  H   LIG     1     -14.192 -26.105   1.146  1.00  0.00     0.085 H 
HETATM   26  C   LIG     1     -15.730 -26.043  -1.901  1.00  0.00    -0.060 A 
HETATM   27  C   LIG     1     -16.389 -24.821  -1.790  1.00  0.00    -0.075 A 
HETATM   28  H   LIG     1     -15.849 -26.644  -2.801  1.00  0.00     0.085 H 
HETATM   29  H   LIG     1     -17.035 -24.497  -2.602  1.00  0.00     0.084 H 
BRANCH  24  30
HETATM   30  S   LIG     1     -14.116 -28.056  -1.024  1.00  0.00     0.239 S 
HETATM   31  O   LIG     1     -14.804 -29.032  -0.177  1.00  0.00    -0.206 OA
HETATM   32  O   LIG     1     -12.697 -27.877  -1.000  1.00  0.00    -0.206 OA
BRANCH  30  33
HETATM   33  N   LIG     1     -14.504 -28.479  -2.605  1.00  0.00    -0.225 NA
HETATM   34  H   LIG     1     -15.077 -29.317  -2.620  1.00  0.00     0.136 HD
HETATM   35  H   LIG     1     -13.644 -28.546  -3.159  1.00  0.00     0.136 HD
ENDBRANCH  30  33
ENDBRANCH  24  30
ENDBRANCH  17  20
ENDBRANCH  13  17
ENDBRANCH   4   7
ENDBRANCH   1   3
BRANCH   1  36
HETATM   36  C   LIG     1     -19.863 -16.859  -5.675  1.00  0.00    -0.011 C 
HETATM   37  H   LIG     1     -19.309 -16.010  -6.090  1.00  0.00     0.050 H 
HETATM   38  H   LIG     1     -20.028 -16.629  -4.615  1.00  0.00     0.050 H 
BRANCH  36  39
HETATM   39  S   LIG     1     -21.514 -16.815  -6.487  1.00  0.00    -0.181 SA
HETATM   40  H   LIG     1     -21.096 -16.894  -7.759  1.00  0.00     0.101 HD
ENDBRANCH  36  39
ENDBRANCH   1  36
BRANCH   1  41
HETATM   41  C   LIG     1     -18.072 -18.293  -7.007  1.00  0.00    -0.020 C 
HETATM   42  C   LIG     1     -17.086 -17.315  -7.209  1.00  0.00     0.009 C 
HETATM   43  N   LIG     1     -16.093 -17.359  -8.122  1.00  0.00    -0.273 NA
HETATM   44  H   LIG     1     -17.038 -16.403  -6.623  1.00  0.00     0.115 H 
HETATM   45  C   LIG     1     -16.083 -18.413  -8.936  1.00  0.00     0.002 C 
HETATM   46  C   LIG     1     -17.075 -19.372  -8.927  1.00  0.00    -0.059 C 
HETATM   47  H   LIG     1     -15.252 -18.472  -9.629  1.00  0.00     0.114 H 
HETATM   48  C   LIG     1     -18.110 -19.334  -7.970  1.00  0.00    -0.047 C 
HETATM   49  H   LIG     1     -17.014 -20.142  -9.684  1.00  0.00     0.086 H 
BRANCH  48  50
HETATM   50  C   LIG     1     -19.219 -20.370  -8.134  1.00  0.00    -0.026 C 
HETATM   51  H   LIG     1     -19.518 -20.697  -7.127  1.00  0.00     0.042 H 
HETATM   52  H   LIG     1     -18.843 -21.272  -8.629  1.00  0.00     0.042 H 
BRANCH  50  53
HETATM   53  C   LIG     1     -20.478 -19.896  -8.889  1.00  0.00    -0.001 C 
HETATM   54  H   LIG     1     -20.279 -18.929  -9.365  1.00  0.00     0.064 H 
HETATM   55  H   LIG     1     -21.298 -19.761  -8.179  1.00  0.00     0.064 H 
BRANCH  53  56
HETATM   56  N   LIG     1     -20.905 -20.770  -9.971  1.00  0.00    -0.360 N 
HETATM   57  C   LIG     1     -21.847 -21.753  -9.769  1.00  0.00     0.221 C 
HETATM   58  O   LIG     1     -22.359 -21.952  -8.671  1.00  0.00    -0.273 OA
HETATM   59  H   LIG     1     -20.691 -20.489 -10.918  1.00  0.00     0.162 HD
BRANCH  57  60
HETATM   60  C   LIG     1     -22.140 -22.634 -10.992  1.00  0.00     0.024 C 
HETATM   61  H   LIG     1     -21.361 -23.409 -10.997  1.00  0.00     0.054 H 
HETATM   62  C   LIG     1     -23.499 -23.344 -10.831  1.00  0.00    -0.051 C 
HETATM   63  C   LIG     1     -24.691 -22.410 -11.079  1.00  0.00    -0.040 C 
HETATM   64  H   LIG     1     -23.592 -23.775  -9.826  1.00  0.00     0.034 H 
HETATM   65  H   LIG     1     -23.551 -24.189 -11.527  1.00  0.00     0.034 H 
HETATM   66  C   LIG     1     -24.572 -21.632 -12.389  1.00  0.00     0.035 C 
HETATM   67  H   LIG     1     -24.773 -21.696 -10.250  1.00  0.00     0.036 H 
HETATM   68  H   LIG     1     -25.609 -23.008 -11.078  1.00  0.00     0.036 H 
HETATM   69  H   LIG     1     -25.398 -20.918 -12.471  1.00  0.00     0.082 H 
HETATM   70  C   LIG     1     -23.240 -20.891 -12.467  1.00  0.00    -0.040 C 
HETATM   71  C   LIG     1     -22.072 -21.867 -12.320  1.00  0.00    -0.051 C 
HETATM   72  H   LIG     1     -23.189 -20.125 -11.685  1.00  0.00     0.036 H 
HETATM   73  H   LIG     1     -23.149 -20.380 -13.433  1.00  0.00     0.036 H 
HETATM   74  H   LIG     1     -21.132 -21.321 -12.433  1.00  0.00     0.034 H 
HETATM   75  H   LIG     1     -22.092 -22.588 -13.148  1.00  0.00     0.034 H 
BRANCH  66  76
HETATM   76  O   LIG     1     -24.647 -22.510 -13.512  1.00  0.00    -0.396 OA
HETATM   77  H   LIG     1     -25.120 -23.317 -13.247  1.00  0.00     0.210 HD
ENDBRANCH  66  76
ENDBRANCH  57  60
ENDBRANCH  53  56
ENDBRANCH  50  53
ENDBRANCH  48  50
ENDBRANCH   1  41
TORSDOF 14
ENDMDL
