MODEL 1
REMARK minimizedAffinity -8.08573532
REMARK minimizedRMSD -1
REMARK  11 active torsions:
REMARK  status: ('A' for Active; 'I' for Inactive)
REMARK    1  A    between atoms: N_1  and  S_2 
REMARK    2  A    between atoms: S_2  and  C_5 
REMARK    3  A    between atoms: C_8  and  C_9 
REMARK    4  A    between atoms: C_9  and  C_10 
REMARK    5  A    between atoms: C_14  and  N_15 
REMARK       I    between atoms: N_15  and  C_16 
REMARK       I    between atoms: C_16  and  N_18 
REMARK    6  A    between atoms: N_18  and  C_19 
REMARK    7  A    between atoms: C_22  and  C_23 
REMARK    8  A    between atoms: C_23  and  C_24 
REMARK    9  A    between atoms: C_24  and  N_25 
REMARK       I    between atoms: N_25  and  C_26 
REMARK   10  A    between atoms: C_26  and  C_28 
REMARK   11  A    between atoms: C_31  and  O_32 
ROOT
HETATM    1  C   LIG     1      -8.052 -33.187  -5.657  1.00  0.00     0.034 A 
HETATM    2  C   LIG     1      -7.188 -34.271  -5.582  1.00  0.00    -0.059 A 
HETATM    3  C   LIG     1      -6.857 -34.962  -6.747  1.00  0.00    -0.057 A 
HETATM    4  C   LIG     1      -7.393 -34.533  -7.961  1.00  0.00     0.035 A 
HETATM    5  N   LIG     1      -8.223 -33.465  -8.045  1.00  0.00    -0.264 NA
HETATM    6  C   LIG     1      -8.546 -32.824  -6.902  1.00  0.00     0.023 A 
HETATM    7  H   LIG     1      -6.795 -34.597  -4.624  1.00  0.00     0.086 H 
HETATM    8  H   LIG     1      -6.200 -35.823  -6.698  1.00  0.00     0.086 H 
HETATM    9  H   LIG     1      -9.234 -31.992  -7.024  1.00  0.00     0.117 H 
ENDROOT
BRANCH   1  10
HETATM   10  N   LIG     1      -8.360 -32.487  -4.473  1.00  0.00    -0.209 NA
HETATM   11  C   LIG     1      -9.601 -32.676  -3.872  1.00  0.00     0.303 C 
HETATM   12  N   LIG     1      -9.722 -31.868  -2.759  1.00  0.00    -0.313 N 
HETATM   13  O   LIG     1     -10.426 -33.490  -4.290  1.00  0.00    -0.253 OA
HETATM   14  H   LIG     1      -8.871 -31.424  -2.445  1.00  0.00     0.170 HD
HETATM   15  H   LIG     1      -8.180 -31.494  -4.561  1.00  0.00     0.138 HD
BRANCH  12  16
HETATM   16  C   LIG     1     -10.801 -31.845  -1.845  1.00  0.00     0.036 C 
HETATM   17  C   LIG     1     -10.694 -32.349  -0.550  1.00  0.00    -0.057 C 
HETATM   18  C   LIG     1     -11.706 -32.122   0.372  1.00  0.00    -0.080 C 
HETATM   19  H   LIG     1      -9.819 -32.891  -0.205  1.00  0.00     0.086 H 
HETATM   20  C   LIG     1     -12.852 -31.434  -0.013  1.00  0.00    -0.076 C 
HETATM   21  H   LIG     1     -11.597 -32.483   1.392  1.00  0.00     0.083 H 
HETATM   22  C   LIG     1     -13.092 -31.117  -1.357  1.00  0.00    -0.052 C 
HETATM   23  H   LIG     1     -13.599 -31.221   0.748  1.00  0.00     0.084 H 
HETATM   24  C   LIG     1     -12.017 -31.264  -2.255  1.00  0.00    -0.051 C 
HETATM   25  H   LIG     1     -12.131 -30.917  -3.280  1.00  0.00     0.087 H 
BRANCH  22  26
HETATM   26  C   LIG     1     -14.443 -30.588  -1.830  1.00  0.00    -0.017 C 
HETATM   27  H   LIG     1     -14.490 -30.760  -2.914  1.00  0.00     0.047 H 
HETATM   28  H   LIG     1     -15.240 -31.185  -1.369  1.00  0.00     0.047 H 
BRANCH  26  29
HETATM   29  C   LIG     1     -14.782 -29.113  -1.561  1.00  0.00    -0.054 A 
HETATM   30  C   LIG     1     -15.462 -28.672  -0.416  1.00  0.00    -0.075 A 
HETATM   31  C   LIG     1     -15.619 -27.314  -0.130  1.00  0.00    -0.060 A 
HETATM   32  H   LIG     1     -15.861 -29.379   0.307  1.00  0.00     0.084 H 
HETATM   33  C   LIG     1     -15.199 -26.364  -1.057  1.00  0.00     0.074 A 
HETATM   34  H   LIG     1     -16.063 -27.046   0.825  1.00  0.00     0.085 H 
HETATM   35  C   LIG     1     -14.618 -26.769  -2.255  1.00  0.00    -0.060 A 
HETATM   36  C   LIG     1     -14.403 -28.133  -2.497  1.00  0.00    -0.075 A 
HETATM   37  H   LIG     1     -14.319 -26.027  -2.986  1.00  0.00     0.085 H 
HETATM   38  H   LIG     1     -13.934 -28.432  -3.430  1.00  0.00     0.084 H 
BRANCH  33  39
HETATM   39  S   LIG     1     -15.413 -24.639  -0.727  1.00  0.00     0.239 S 
HETATM   40  O   LIG     1     -16.647 -24.224  -1.357  1.00  0.00    -0.206 OA
HETATM   41  O   LIG     1     -14.165 -23.952  -0.986  1.00  0.00    -0.206 OA
BRANCH  39  42
HETATM   42  N   LIG     1     -15.625 -24.616   0.951  1.00  0.00    -0.225 NA
HETATM   43  H   LIG     1     -16.539 -24.282   1.268  1.00  0.00     0.136 HD
HETATM   44  H   LIG     1     -14.849 -24.131   1.415  1.00  0.00     0.136 HD
ENDBRANCH  39  42
ENDBRANCH  33  39
ENDBRANCH  26  29
ENDBRANCH  22  26
ENDBRANCH  12  16
ENDBRANCH   1  10
BRANCH   4  45
HETATM   45  C   LIG     1      -7.068 -35.278  -9.233  1.00  0.00    -0.010 C 
HETATM   46  H   LIG     1      -7.809 -36.074  -9.371  1.00  0.00     0.044 H 
HETATM   47  H   LIG     1      -6.090 -35.763  -9.121  1.00  0.00     0.044 H 
BRANCH  45  48
HETATM   48  C   LIG     1      -7.056 -34.374 -10.468  1.00  0.00     0.000 C 
HETATM   49  H   LIG     1      -6.756 -34.943 -11.358  1.00  0.00     0.064 H 
HETATM   50  H   LIG     1      -6.344 -33.550 -10.345  1.00  0.00     0.064 H 
BRANCH  48  51
HETATM   51  N   LIG     1      -8.355 -33.783 -10.741  1.00  0.00    -0.360 N 
HETATM   52  C   LIG     1      -9.378 -34.544 -11.276  1.00  0.00     0.221 C 
HETATM   53  O   LIG     1      -9.254 -35.728 -11.564  1.00  0.00    -0.273 OA
HETATM   54  H   LIG     1      -8.447 -32.776 -10.744  1.00  0.00     0.162 HD
BRANCH  52  55
HETATM   55  C   LIG     1     -10.669 -33.754 -11.494  1.00  0.00     0.024 C 
HETATM   56  C   LIG     1     -11.757 -34.181 -10.505  1.00  0.00    -0.051 C 
HETATM   57  C   LIG     1     -11.599 -33.549  -9.119  1.00  0.00    -0.040 C 
HETATM   58  H   LIG     1     -11.779 -35.273 -10.397  1.00  0.00     0.034 H 
HETATM   59  H   LIG     1     -12.732 -33.889 -10.915  1.00  0.00     0.034 H 
HETATM   60  C   LIG     1     -11.465 -32.030  -9.184  1.00  0.00     0.035 C 
HETATM   61  H   LIG     1     -10.722 -33.974  -8.619  1.00  0.00     0.036 H 
HETATM   62  H   LIG     1     -12.479 -33.815  -8.519  1.00  0.00     0.036 H 
HETATM   63  C   LIG     1     -10.338 -31.600 -10.114  1.00  0.00    -0.040 C 
HETATM   64  H   LIG     1     -11.282 -31.626  -8.182  1.00  0.00     0.082 H 
HETATM   65  C   LIG     1     -10.427 -32.240 -11.500  1.00  0.00    -0.051 C 
HETATM   66  H   LIG     1      -9.374 -31.847  -9.655  1.00  0.00     0.036 H 
HETATM   67  H   LIG     1     -10.362 -30.511 -10.243  1.00  0.00     0.036 H 
HETATM   68  H   LIG     1      -9.512 -32.006 -12.059  1.00  0.00     0.034 H 
HETATM   69  H   LIG     1     -11.252 -31.767 -12.046  1.00  0.00     0.034 H 
HETATM   70  H   LIG     1     -11.013 -34.019 -12.504  1.00  0.00     0.054 H 
BRANCH  60  71
HETATM   71  O   LIG     1     -12.688 -31.466  -9.654  1.00  0.00    -0.396 OA
HETATM   72  H   LIG     1     -13.353 -31.599  -8.956  1.00  0.00     0.210 HD
ENDBRANCH  60  71
ENDBRANCH  52  55
ENDBRANCH  48  51
ENDBRANCH  45  48
ENDBRANCH   4  45
TORSDOF 11
ENDMDL
MODEL 2
REMARK minimizedAffinity -8.02612209
REMARK minimizedRMSD -1
REMARK  11 active torsions:
REMARK  status: ('A' for Active; 'I' for Inactive)
REMARK    1  A    between atoms: N_1  and  S_2 
REMARK    2  A    between atoms: S_2  and  C_5 
REMARK    3  A    between atoms: C_8  and  C_9 
REMARK    4  A    between atoms: C_9  and  C_10 
REMARK    5  A    between atoms: C_14  and  N_15 
REMARK       I    between atoms: N_15  and  C_16 
REMARK       I    between atoms: C_16  and  N_18 
REMARK    6  A    between atoms: N_18  and  C_19 
REMARK    7  A    between atoms: C_22  and  C_23 
REMARK    8  A    between atoms: C_23  and  C_24 
REMARK    9  A    between atoms: C_24  and  N_25 
REMARK       I    between atoms: N_25  and  C_26 
REMARK   10  A    between atoms: C_26  and  C_28 
REMARK   11  A    between atoms: C_31  and  O_32 
ROOT
HETATM    1  C   LIG     1      -6.727 -23.637   0.538  1.00  0.00     0.034 A 
HETATM    2  C   LIG     1      -5.671 -24.314   1.134  1.00  0.00    -0.059 A 
HETATM    3  C   LIG     1      -4.485 -23.631   1.400  1.00  0.00    -0.057 A 
HETATM    4  C   LIG     1      -4.398 -22.278   1.073  1.00  0.00     0.035 A 
HETATM    5  N   LIG     1      -5.429 -21.606   0.508  1.00  0.00    -0.264 NA
HETATM    6  C   LIG     1      -6.561 -22.291   0.240  1.00  0.00     0.023 A 
HETATM    7  H   LIG     1      -5.756 -25.371   1.366  1.00  0.00     0.086 H 
HETATM    8  H   LIG     1      -3.647 -24.155   1.845  1.00  0.00     0.086 H 
HETATM    9  H   LIG     1      -7.346 -21.710  -0.236  1.00  0.00     0.117 H 
ENDROOT
BRANCH   1  10
HETATM   10  N   LIG     1      -7.926 -24.336   0.295  1.00  0.00    -0.209 NA
HETATM   11  C   LIG     1      -8.699 -24.758   1.372  1.00  0.00     0.303 C 
HETATM   12  N   LIG     1      -9.800 -25.462   0.925  1.00  0.00    -0.313 N 
HETATM   13  O   LIG     1      -8.420 -24.485   2.541  1.00  0.00    -0.253 OA
HETATM   14  H   LIG     1      -9.982 -25.408  -0.068  1.00  0.00     0.170 HD
HETATM   15  H   LIG     1      -7.792 -25.111  -0.343  1.00  0.00     0.138 HD
BRANCH  12  16
HETATM   16  C   LIG     1     -10.855 -25.972   1.716  1.00  0.00     0.036 C 
HETATM   17  C   LIG     1     -10.719 -26.202   3.084  1.00  0.00    -0.057 C 
HETATM   18  C   LIG     1     -11.834 -26.507   3.854  1.00  0.00    -0.080 C 
HETATM   19  H   LIG     1      -9.768 -26.115   3.599  1.00  0.00     0.086 H 
HETATM   20  C   LIG     1     -13.080 -26.633   3.249  1.00  0.00    -0.076 C 
HETATM   21  H   LIG     1     -11.726 -26.645   4.927  1.00  0.00     0.083 H 
HETATM   22  C   LIG     1     -13.212 -26.635   1.853  1.00  0.00    -0.052 C 
HETATM   23  H   LIG     1     -13.940 -26.813   3.888  1.00  0.00     0.084 H 
HETATM   24  C   LIG     1     -12.096 -26.228   1.099  1.00  0.00    -0.051 C 
HETATM   25  H   LIG     1     -12.199 -26.104   0.023  1.00  0.00     0.087 H 
BRANCH  22  26
HETATM   26  C   LIG     1     -14.524 -27.015   1.171  1.00  0.00    -0.017 C 
HETATM   27  H   LIG     1     -15.223 -27.309   1.965  1.00  0.00     0.047 H 
HETATM   28  H   LIG     1     -14.941 -26.126   0.680  1.00  0.00     0.047 H 
BRANCH  26  29
HETATM   29  C   LIG     1     -14.499 -28.132   0.115  1.00  0.00    -0.054 A 
HETATM   30  C   LIG     1     -15.324 -28.143  -1.020  1.00  0.00    -0.075 A 
HETATM   31  C   LIG     1     -15.169 -29.091  -2.034  1.00  0.00    -0.060 A 
HETATM   32  H   LIG     1     -16.094 -27.389  -1.161  1.00  0.00     0.084 H 
HETATM   33  C   LIG     1     -14.254 -30.128  -1.870  1.00  0.00     0.074 A 
HETATM   34  H   LIG     1     -15.772 -28.976  -2.930  1.00  0.00     0.085 H 
HETATM   35  C   LIG     1     -13.495 -30.210  -0.708  1.00  0.00    -0.060 A 
HETATM   36  C   LIG     1     -13.610 -29.212   0.270  1.00  0.00    -0.075 A 
HETATM   37  H   LIG     1     -12.804 -31.035  -0.573  1.00  0.00     0.085 H 
HETATM   38  H   LIG     1     -12.999 -29.282   1.165  1.00  0.00     0.084 H 
BRANCH  33  39
HETATM   39  S   LIG     1     -14.061 -31.354  -3.131  1.00  0.00     0.239 S 
HETATM   40  O   LIG     1     -12.787 -32.005  -2.915  1.00  0.00    -0.206 OA
HETATM   41  O   LIG     1     -14.403 -30.772  -4.411  1.00  0.00    -0.206 OA
BRANCH  39  42
HETATM   42  N   LIG     1     -15.298 -32.448  -2.764  1.00  0.00    -0.225 NA
HETATM   43  H   LIG     1     -14.985 -33.385  -2.498  1.00  0.00     0.136 HD
HETATM   44  H   LIG     1     -16.006 -32.468  -3.506  1.00  0.00     0.136 HD
ENDBRANCH  39  42
ENDBRANCH  33  39
ENDBRANCH  26  29
ENDBRANCH  22  26
ENDBRANCH  12  16
ENDBRANCH   1  10
BRANCH   4  45
HETATM   45  C   LIG     1      -3.116 -21.523   1.330  1.00  0.00    -0.010 C 
HETATM   46  H   LIG     1      -2.695 -21.211   0.366  1.00  0.00     0.044 H 
HETATM   47  H   LIG     1      -2.391 -22.201   1.796  1.00  0.00     0.044 H 
BRANCH  45  48
HETATM   48  C   LIG     1      -3.316 -20.292   2.217  1.00  0.00     0.000 C 
HETATM   49  H   LIG     1      -3.257 -19.373   1.619  1.00  0.00     0.064 H 
HETATM   50  H   LIG     1      -2.540 -20.235   2.989  1.00  0.00     0.064 H 
BRANCH  48  51
HETATM   51  N   LIG     1      -4.600 -20.295   2.898  1.00  0.00    -0.360 N 
HETATM   52  C   LIG     1      -4.797 -19.531   4.034  1.00  0.00     0.221 C 
HETATM   53  O   LIG     1      -3.921 -18.838   4.538  1.00  0.00    -0.273 OA
HETATM   54  H   LIG     1      -5.276 -21.012   2.672  1.00  0.00     0.162 HD
BRANCH  52  55
HETATM   55  C   LIG     1      -6.206 -19.660   4.612  1.00  0.00     0.024 C 
HETATM   56  C   LIG     1      -6.964 -20.829   3.976  1.00  0.00    -0.051 C 
HETATM   57  C   LIG     1      -6.591 -22.189   4.571  1.00  0.00    -0.040 C 
HETATM   58  H   LIG     1      -6.799 -20.857   2.892  1.00  0.00     0.034 H 
HETATM   59  H   LIG     1      -8.039 -20.665   4.123  1.00  0.00     0.034 H 
HETATM   60  C   LIG     1      -6.703 -22.211   6.093  1.00  0.00     0.035 C 
HETATM   61  H   LIG     1      -5.570 -22.453   4.274  1.00  0.00     0.036 H 
HETATM   62  H   LIG     1      -7.261 -22.946   4.142  1.00  0.00     0.036 H 
HETATM   63  C   LIG     1      -5.894 -21.091   6.736  1.00  0.00    -0.040 C 
HETATM   64  H   LIG     1      -6.359 -23.176   6.482  1.00  0.00     0.082 H 
HETATM   65  C   LIG     1      -6.200 -19.715   6.145  1.00  0.00    -0.051 C 
HETATM   66  H   LIG     1      -4.825 -21.309   6.631  1.00  0.00     0.036 H 
HETATM   67  H   LIG     1      -6.109 -21.053   7.811  1.00  0.00     0.036 H 
HETATM   68  H   LIG     1      -5.483 -18.988   6.546  1.00  0.00     0.034 H 
HETATM   69  H   LIG     1      -7.189 -19.399   6.499  1.00  0.00     0.034 H 
HETATM   70  H   LIG     1      -6.728 -18.733   4.335  1.00  0.00     0.054 H 
BRANCH  60  71
HETATM   71  O   LIG     1      -8.070 -22.064   6.470  1.00  0.00    -0.396 OA
HETATM   72  H   LIG     1      -8.531 -22.878   6.203  1.00  0.00     0.210 HD
ENDBRANCH  60  71
ENDBRANCH  52  55
ENDBRANCH  48  51
ENDBRANCH  45  48
ENDBRANCH   4  45
TORSDOF 11
ENDMDL
MODEL 3
REMARK minimizedAffinity -7.084198
REMARK minimizedRMSD -1
REMARK  11 active torsions:
REMARK  status: ('A' for Active; 'I' for Inactive)
REMARK    1  A    between atoms: N_1  and  S_2 
REMARK    2  A    between atoms: S_2  and  C_5 
REMARK    3  A    between atoms: C_8  and  C_9 
REMARK    4  A    between atoms: C_9  and  C_10 
REMARK    5  A    between atoms: C_14  and  N_15 
REMARK       I    between atoms: N_15  and  C_16 
REMARK       I    between atoms: C_16  and  N_18 
REMARK    6  A    between atoms: N_18  and  C_19 
REMARK    7  A    between atoms: C_22  and  C_23 
REMARK    8  A    between atoms: C_23  and  C_24 
REMARK    9  A    between atoms: C_24  and  N_25 
REMARK       I    between atoms: N_25  and  C_26 
REMARK   10  A    between atoms: C_26  and  C_28 
REMARK   11  A    between atoms: C_31  and  O_32 
ROOT
HETATM    1  C   LIG     1     -15.529 -25.258  -0.117  1.00  0.00     0.034 A 
HETATM    2  C   LIG     1     -14.464 -25.589   0.711  1.00  0.00    -0.059 A 
HETATM    3  C   LIG     1     -13.999 -26.903   0.732  1.00  0.00    -0.057 A 
HETATM    4  C   LIG     1     -14.608 -27.848  -0.093  1.00  0.00     0.035 A 
HETATM    5  N   LIG     1     -15.636 -27.530  -0.917  1.00  0.00    -0.264 NA
HETATM    6  C   LIG     1     -16.084 -26.256  -0.906  1.00  0.00     0.023 A 
HETATM    7  H   LIG     1     -14.015 -24.840   1.356  1.00  0.00     0.086 H 
HETATM    8  H   LIG     1     -13.182 -27.178   1.390  1.00  0.00     0.086 H 
HETATM    9  H   LIG     1     -16.925 -26.063  -1.566  1.00  0.00     0.117 H 
ENDROOT
BRANCH   1  10
HETATM   10  N   LIG     1     -15.974 -23.921  -0.143  1.00  0.00    -0.209 NA
HETATM   11  C   LIG     1     -15.585 -23.093  -1.190  1.00  0.00     0.303 C 
HETATM   12  N   LIG     1     -16.083 -21.818  -1.005  1.00  0.00    -0.313 N 
HETATM   13  O   LIG     1     -14.920 -23.495  -2.146  1.00  0.00    -0.253 OA
HETATM   14  H   LIG     1     -16.780 -21.722  -0.279  1.00  0.00     0.170 HD
HETATM   15  H   LIG     1     -15.806 -23.447   0.737  1.00  0.00     0.138 HD
BRANCH  12  16
HETATM   16  C   LIG     1     -15.971 -20.729  -1.898  1.00  0.00     0.036 C 
HETATM   17  C   LIG     1     -14.766 -20.062  -2.116  1.00  0.00    -0.057 C 
HETATM   18  C   LIG     1     -14.657 -19.138  -3.146  1.00  0.00    -0.080 C 
HETATM   19  H   LIG     1     -13.875 -20.262  -1.530  1.00  0.00     0.086 H 
HETATM   20  C   LIG     1     -15.767 -18.840  -3.929  1.00  0.00    -0.076 C 
HETATM   21  H   LIG     1     -13.703 -18.652  -3.335  1.00  0.00     0.083 H 
HETATM   22  C   LIG     1     -17.042 -19.317  -3.594  1.00  0.00    -0.052 C 
HETATM   23  H   LIG     1     -15.633 -18.157  -4.764  1.00  0.00     0.084 H 
HETATM   24  C   LIG     1     -17.115 -20.324  -2.614  1.00  0.00    -0.051 C 
HETATM   25  H   LIG     1     -18.073 -20.800  -2.413  1.00  0.00     0.087 H 
BRANCH  22  26
HETATM   26  C   LIG     1     -18.301 -18.806  -4.290  1.00  0.00    -0.017 C 
HETATM   27  H   LIG     1     -19.152 -19.084  -3.654  1.00  0.00     0.047 H 
HETATM   28  H   LIG     1     -18.266 -17.709  -4.328  1.00  0.00     0.047 H 
BRANCH  26  29
HETATM   29  C   LIG     1     -18.589 -19.289  -5.720  1.00  0.00    -0.054 A 
HETATM   30  C   LIG     1     -19.815 -19.089  -6.373  1.00  0.00    -0.075 A 
HETATM   31  C   LIG     1     -19.991 -19.404  -7.721  1.00  0.00    -0.060 A 
HETATM   32  H   LIG     1     -20.661 -18.648  -5.853  1.00  0.00     0.084 H 
HETATM   33  C   LIG     1     -18.969 -20.045  -8.416  1.00  0.00     0.074 A 
HETATM   34  H   LIG     1     -20.933 -19.126  -8.187  1.00  0.00     0.085 H 
HETATM   35  C   LIG     1     -17.778 -20.358  -7.769  1.00  0.00    -0.060 A 
HETATM   36  C   LIG     1     -17.588 -19.971  -6.436  1.00  0.00    -0.075 A 
HETATM   37  H   LIG     1     -16.995 -20.882  -8.307  1.00  0.00     0.085 H 
HETATM   38  H   LIG     1     -16.646 -20.209  -5.950  1.00  0.00     0.084 H 
BRANCH  33  39
HETATM   39  S   LIG     1     -19.182 -20.478 -10.119  1.00  0.00     0.239 S 
HETATM   40  O   LIG     1     -20.384 -21.276 -10.219  1.00  0.00    -0.206 OA
HETATM   41  O   LIG     1     -17.918 -20.947 -10.646  1.00  0.00    -0.206 OA
BRANCH  39  42
HETATM   42  N   LIG     1     -19.466 -18.975 -10.841  1.00  0.00    -0.225 NA
HETATM   43  H   LIG     1     -20.390 -18.866 -11.267  1.00  0.00     0.136 HD
HETATM   44  H   LIG     1     -18.706 -18.724 -11.483  1.00  0.00     0.136 HD
ENDBRANCH  39  42
ENDBRANCH  33  39
ENDBRANCH  26  29
ENDBRANCH  22  26
ENDBRANCH  12  16
ENDBRANCH   1  10
BRANCH   4  45
HETATM   45  C   LIG     1     -14.138 -29.282  -0.071  1.00  0.00    -0.010 C 
HETATM   46  H   LIG     1     -14.740 -29.837   0.659  1.00  0.00     0.044 H 
HETATM   47  H   LIG     1     -13.098 -29.310   0.280  1.00  0.00     0.044 H 
BRANCH  45  48
HETATM   48  C   LIG     1     -14.239 -29.965  -1.437  1.00  0.00     0.000 C 
HETATM   49  H   LIG     1     -15.250 -30.365  -1.592  1.00  0.00     0.064 H 
HETATM   50  H   LIG     1     -13.536 -30.803  -1.509  1.00  0.00     0.064 H 
BRANCH  48  51
HETATM   51  N   LIG     1     -13.947 -29.063  -2.537  1.00  0.00    -0.360 N 
HETATM   52  C   LIG     1     -12.664 -28.966  -3.047  1.00  0.00     0.221 C 
HETATM   53  O   LIG     1     -11.715 -29.602  -2.605  1.00  0.00    -0.273 OA
HETATM   54  H   LIG     1     -14.623 -28.353  -2.786  1.00  0.00     0.162 HD
BRANCH  52  55
HETATM   55  C   LIG     1     -12.546 -27.968  -4.199  1.00  0.00     0.024 C 
HETATM   56  C   LIG     1     -13.520 -26.799  -4.026  1.00  0.00    -0.051 C 
HETATM   57  C   LIG     1     -13.021 -25.734  -3.045  1.00  0.00    -0.040 C 
HETATM   58  H   LIG     1     -14.502 -27.157  -3.693  1.00  0.00     0.034 H 
HETATM   59  H   LIG     1     -13.675 -26.330  -5.005  1.00  0.00     0.034 H 
HETATM   60  C   LIG     1     -11.615 -25.246  -3.381  1.00  0.00     0.035 C 
HETATM   61  H   LIG     1     -13.037 -26.136  -2.026  1.00  0.00     0.036 H 
HETATM   62  H   LIG     1     -13.720 -24.889  -3.074  1.00  0.00     0.036 H 
HETATM   63  C   LIG     1     -10.625 -26.400  -3.487  1.00  0.00    -0.040 C 
HETATM   64  H   LIG     1     -11.268 -24.542  -2.617  1.00  0.00     0.082 H 
HETATM   65  C   LIG     1     -11.099 -27.512  -4.423  1.00  0.00    -0.051 C 
HETATM   66  H   LIG     1     -10.440 -26.812  -2.488  1.00  0.00     0.036 H 
HETATM   67  H   LIG     1      -9.664 -26.028  -3.863  1.00  0.00     0.036 H 
HETATM   68  H   LIG     1     -10.415 -28.366  -4.335  1.00  0.00     0.034 H 
HETATM   69  H   LIG     1     -11.012 -27.154  -5.456  1.00  0.00     0.034 H 
HETATM   70  H   LIG     1     -12.843 -28.520  -5.103  1.00  0.00     0.054 H 
BRANCH  60  71
HETATM   71  O   LIG     1     -11.639 -24.548  -4.624  1.00  0.00    -0.396 OA
HETATM   72  H   LIG     1     -12.131 -23.721  -4.479  1.00  0.00     0.210 HD
ENDBRANCH  60  71
ENDBRANCH  52  55
ENDBRANCH  48  51
ENDBRANCH  45  48
ENDBRANCH   4  45
TORSDOF 11
ENDMDL
MODEL 4
REMARK minimizedAffinity -6.45697308
REMARK minimizedRMSD -1
REMARK  11 active torsions:
REMARK  status: ('A' for Active; 'I' for Inactive)
REMARK    1  A    between atoms: N_1  and  S_2 
REMARK    2  A    between atoms: S_2  and  C_5 
REMARK    3  A    between atoms: C_8  and  C_9 
REMARK    4  A    between atoms: C_9  and  C_10 
REMARK    5  A    between atoms: C_14  and  N_15 
REMARK       I    between atoms: N_15  and  C_16 
REMARK       I    between atoms: C_16  and  N_18 
REMARK    6  A    between atoms: N_18  and  C_19 
REMARK    7  A    between atoms: C_22  and  C_23 
REMARK    8  A    between atoms: C_23  and  C_24 
REMARK    9  A    between atoms: C_24  and  N_25 
REMARK       I    between atoms: N_25  and  C_26 
REMARK   10  A    between atoms: C_26  and  C_28 
REMARK   11  A    between atoms: C_31  and  O_32 
ROOT
HETATM    1  C   LIG     1     -15.498 -24.888  -0.411  1.00  0.00     0.034 A 
HETATM    2  C   LIG     1     -14.898 -25.684   0.556  1.00  0.00    -0.059 A 
HETATM    3  C   LIG     1     -14.843 -27.064   0.366  1.00  0.00    -0.057 A 
HETATM    4  C   LIG     1     -15.381 -27.606  -0.800  1.00  0.00     0.035 A 
HETATM    5  N   LIG     1     -15.952 -26.835  -1.757  1.00  0.00    -0.264 NA
HETATM    6  C   LIG     1     -16.012 -25.504  -1.543  1.00  0.00     0.023 A 
HETATM    7  H   LIG     1     -14.500 -25.241   1.464  1.00  0.00     0.086 H 
HETATM    8  H   LIG     1     -14.397 -27.698   1.125  1.00  0.00     0.086 H 
HETATM    9  H   LIG     1     -16.502 -24.937  -2.330  1.00  0.00     0.117 H 
ENDROOT
BRANCH   1  10
HETATM   10  N   LIG     1     -15.526 -23.492  -0.214  1.00  0.00    -0.209 NA
HETATM   11  C   LIG     1     -14.455 -22.720  -0.652  1.00  0.00     0.303 C 
HETATM   12  N   LIG     1     -14.654 -21.394  -0.323  1.00  0.00    -0.313 N 
HETATM   13  O   LIG     1     -13.503 -23.194  -1.275  1.00  0.00    -0.253 OA
HETATM   14  H   LIG     1     -15.583 -21.157  -0.003  1.00  0.00     0.170 HD
HETATM   15  H   LIG     1     -15.744 -23.248   0.745  1.00  0.00     0.138 HD
BRANCH  12  16
HETATM   16  C   LIG     1     -13.827 -20.303  -0.676  1.00  0.00     0.036 C 
HETATM   17  C   LIG     1     -12.689 -19.961   0.053  1.00  0.00    -0.057 C 
HETATM   18  C   LIG     1     -11.801 -19.018  -0.443  1.00  0.00    -0.080 C 
HETATM   19  H   LIG     1     -12.435 -20.437   0.995  1.00  0.00     0.086 H 
HETATM   20  C   LIG     1     -12.074 -18.374  -1.645  1.00  0.00    -0.076 C 
HETATM   21  H   LIG     1     -10.895 -18.786   0.111  1.00  0.00     0.083 H 
HETATM   22  C   LIG     1     -13.313 -18.524  -2.284  1.00  0.00    -0.052 C 
HETATM   23  H   LIG     1     -11.329 -17.684  -2.035  1.00  0.00     0.084 H 
HETATM   24  C   LIG     1     -14.155 -19.554  -1.823  1.00  0.00    -0.051 C 
HETATM   25  H   LIG     1     -15.069 -19.775  -2.369  1.00  0.00     0.087 H 
BRANCH  22  26
HETATM   26  C   LIG     1     -13.722 -17.644  -3.462  1.00  0.00    -0.017 C 
HETATM   27  H   LIG     1     -14.551 -17.013  -3.115  1.00  0.00     0.047 H 
HETATM   28  H   LIG     1     -12.887 -16.977  -3.715  1.00  0.00     0.047 H 
BRANCH  26  29
HETATM   29  C   LIG     1     -14.153 -18.329  -4.769  1.00  0.00    -0.054 A 
HETATM   30  C   LIG     1     -15.457 -18.268  -5.282  1.00  0.00    -0.075 A 
HETATM   31  C   LIG     1     -15.776 -18.772  -6.544  1.00  0.00    -0.060 A 
HETATM   32  H   LIG     1     -16.259 -17.793  -4.722  1.00  0.00     0.084 H 
HETATM   33  C   LIG     1     -14.811 -19.462  -7.272  1.00  0.00     0.074 A 
HETATM   34  H   LIG     1     -16.781 -18.598  -6.920  1.00  0.00     0.085 H 
HETATM   35  C   LIG     1     -13.535 -19.637  -6.746  1.00  0.00    -0.060 A 
HETATM   36  C   LIG     1     -13.209 -19.064  -5.509  1.00  0.00    -0.075 A 
HETATM   37  H   LIG     1     -12.795 -20.199  -7.305  1.00  0.00     0.085 H 
HETATM   38  H   LIG     1     -12.203 -19.196  -5.119  1.00  0.00     0.084 H 
BRANCH  33  39
HETATM   39  S   LIG     1     -15.202 -20.133  -8.863  1.00  0.00     0.239 S 
HETATM   40  O   LIG     1     -14.963 -19.096  -9.844  1.00  0.00    -0.206 OA
HETATM   41  O   LIG     1     -16.473 -20.819  -8.784  1.00  0.00    -0.206 OA
BRANCH  39  42
HETATM   42  N   LIG     1     -14.026 -21.335  -9.047  1.00  0.00    -0.225 NA
HETATM   43  H   LIG     1     -13.372 -21.188  -9.820  1.00  0.00     0.136 HD
HETATM   44  H   LIG     1     -14.452 -22.268  -9.067  1.00  0.00     0.136 HD
ENDBRANCH  39  42
ENDBRANCH  33  39
ENDBRANCH  26  29
ENDBRANCH  22  26
ENDBRANCH  12  16
ENDBRANCH   1  10
BRANCH   4  45
HETATM   45  C   LIG     1     -15.354 -29.100  -1.018  1.00  0.00    -0.010 C 
HETATM   46  H   LIG     1     -16.370 -29.436  -1.261  1.00  0.00     0.044 H 
HETATM   47  H   LIG     1     -15.067 -29.591  -0.079  1.00  0.00     0.044 H 
BRANCH  45  48
HETATM   48  C   LIG     1     -14.399 -29.524  -2.136  1.00  0.00     0.000 C 
HETATM   49  H   LIG     1     -14.876 -30.267  -2.788  1.00  0.00     0.064 H 
HETATM   50  H   LIG     1     -13.491 -29.979  -1.724  1.00  0.00     0.064 H 
BRANCH  48  51
HETATM   51  N   LIG     1     -13.980 -28.410  -2.968  1.00  0.00    -0.360 N 
HETATM   52  C   LIG     1     -12.713 -28.379  -3.521  1.00  0.00     0.221 C 
HETATM   53  O   LIG     1     -11.878 -29.256  -3.335  1.00  0.00    -0.273 OA
HETATM   54  H   LIG     1     -14.530 -27.560  -2.967  1.00  0.00     0.162 HD
BRANCH  52  55
HETATM   55  C   LIG     1     -12.451 -27.132  -4.365  1.00  0.00     0.024 C 
HETATM   56  C   LIG     1     -12.750 -25.853  -3.576  1.00  0.00    -0.051 C 
HETATM   57  C   LIG     1     -11.622 -25.451  -2.622  1.00  0.00    -0.040 C 
HETATM   58  H   LIG     1     -13.680 -25.958  -3.004  1.00  0.00     0.034 H 
HETATM   59  H   LIG     1     -12.914 -25.037  -4.290  1.00  0.00     0.034 H 
HETATM   60  C   LIG     1     -10.268 -25.374  -3.321  1.00  0.00     0.035 C 
HETATM   61  H   LIG     1     -11.568 -26.167  -1.794  1.00  0.00     0.036 H 
HETATM   62  H   LIG     1     -11.870 -24.472  -2.192  1.00  0.00     0.036 H 
HETATM   63  C   LIG     1      -9.932 -26.669  -4.051  1.00  0.00    -0.040 C 
HETATM   64  H   LIG     1      -9.480 -25.156  -2.591  1.00  0.00     0.082 H 
HETATM   65  C   LIG     1     -11.048 -27.137  -4.985  1.00  0.00    -0.051 C 
HETATM   66  H   LIG     1      -9.712 -27.453  -3.317  1.00  0.00     0.036 H 
HETATM   67  H   LIG     1      -9.025 -26.529  -4.651  1.00  0.00     0.036 H 
HETATM   68  H   LIG     1     -10.803 -28.140  -5.358  1.00  0.00     0.034 H 
HETATM   69  H   LIG     1     -11.063 -26.478  -5.862  1.00  0.00     0.034 H 
HETATM   70  H   LIG     1     -13.162 -27.183  -5.202  1.00  0.00     0.054 H 
BRANCH  60  71
HETATM   71  O   LIG     1     -10.281 -24.306  -4.266  1.00  0.00    -0.396 OA
HETATM   72  H   LIG     1     -10.316 -23.476  -3.760  1.00  0.00     0.210 HD
ENDBRANCH  60  71
ENDBRANCH  52  55
ENDBRANCH  48  51
ENDBRANCH  45  48
ENDBRANCH   4  45
TORSDOF 11
ENDMDL
MODEL 5
REMARK minimizedAffinity -6.32529974
REMARK minimizedRMSD -1
REMARK  11 active torsions:
REMARK  status: ('A' for Active; 'I' for Inactive)
REMARK    1  A    between atoms: N_1  and  S_2 
REMARK    2  A    between atoms: S_2  and  C_5 
REMARK    3  A    between atoms: C_8  and  C_9 
REMARK    4  A    between atoms: C_9  and  C_10 
REMARK    5  A    between atoms: C_14  and  N_15 
REMARK       I    between atoms: N_15  and  C_16 
REMARK       I    between atoms: C_16  and  N_18 
REMARK    6  A    between atoms: N_18  and  C_19 
REMARK    7  A    between atoms: C_22  and  C_23 
REMARK    8  A    between atoms: C_23  and  C_24 
REMARK    9  A    between atoms: C_24  and  N_25 
REMARK       I    between atoms: N_25  and  C_26 
REMARK   10  A    between atoms: C_26  and  C_28 
REMARK   11  A    between atoms: C_31  and  O_32 
ROOT
HETATM    1  C   LIG     1      -7.520 -33.663  -5.163  1.00  0.00     0.034 A 
HETATM    2  C   LIG     1      -8.121 -33.689  -6.415  1.00  0.00    -0.059 A 
HETATM    3  C   LIG     1      -7.662 -34.589  -7.375  1.00  0.00    -0.057 A 
HETATM    4  C   LIG     1      -6.617 -35.452  -7.045  1.00  0.00     0.035 A 
HETATM    5  N   LIG     1      -6.036 -35.446  -5.821  1.00  0.00    -0.264 NA
HETATM    6  C   LIG     1      -6.483 -34.552  -4.913  1.00  0.00     0.023 A 
HETATM    7  H   LIG     1      -8.923 -32.997  -6.654  1.00  0.00     0.086 H 
HETATM    8  H   LIG     1      -8.110 -34.603  -8.362  1.00  0.00     0.086 H 
HETATM    9  H   LIG     1      -5.966 -34.574  -3.958  1.00  0.00     0.117 H 
ENDROOT
BRANCH   1  10
HETATM   10  N   LIG     1      -8.010 -32.762  -4.197  1.00  0.00    -0.209 NA
HETATM   11  C   LIG     1      -9.182 -33.067  -3.513  1.00  0.00     0.303 C 
HETATM   12  N   LIG     1      -9.516 -32.041  -2.651  1.00  0.00    -0.313 N 
HETATM   13  O   LIG     1      -9.782 -34.133  -3.661  1.00  0.00    -0.253 OA
HETATM   14  H   LIG     1      -8.801 -31.341  -2.506  1.00  0.00     0.170 HD
HETATM   15  H   LIG     1      -8.069 -31.816  -4.554  1.00  0.00     0.138 HD
BRANCH  12  16
HETATM   16  C   LIG     1     -10.588 -32.025  -1.731  1.00  0.00     0.036 C 
HETATM   17  C   LIG     1     -10.503 -32.622  -0.474  1.00  0.00    -0.057 C 
HETATM   18  C   LIG     1     -11.498 -32.407   0.469  1.00  0.00    -0.080 C 
HETATM   19  H   LIG     1      -9.656 -33.231  -0.174  1.00  0.00     0.086 H 
HETATM   20  C   LIG     1     -12.608 -31.636   0.141  1.00  0.00    -0.076 C 
HETATM   21  H   LIG     1     -11.404 -32.843   1.461  1.00  0.00     0.083 H 
HETATM   22  C   LIG     1     -12.836 -31.215  -1.177  1.00  0.00    -0.052 C 
HETATM   23  H   LIG     1     -13.340 -31.438   0.921  1.00  0.00     0.084 H 
HETATM   24  C   LIG     1     -11.774 -31.355  -2.090  1.00  0.00    -0.051 C 
HETATM   25  H   LIG     1     -11.874 -30.933  -3.088  1.00  0.00     0.087 H 
BRANCH  22  26
HETATM   26  C   LIG     1     -14.159 -30.585  -1.602  1.00  0.00    -0.017 C 
HETATM   27  H   LIG     1     -14.253 -30.741  -2.685  1.00  0.00     0.047 H 
HETATM   28  H   LIG     1     -14.983 -31.129  -1.121  1.00  0.00     0.047 H 
BRANCH  26  29
HETATM   29  C   LIG     1     -14.384 -29.093  -1.309  1.00  0.00    -0.054 A 
HETATM   30  C   LIG     1     -13.502 -28.082  -1.721  1.00  0.00    -0.075 A 
HETATM   31  C   LIG     1     -13.812 -26.729  -1.572  1.00  0.00    -0.060 A 
HETATM   32  H   LIG     1     -12.558 -28.323  -2.203  1.00  0.00     0.084 H 
HETATM   33  C   LIG     1     -14.969 -26.361  -0.890  1.00  0.00     0.074 A 
HETATM   34  H   LIG     1     -13.131 -26.003  -2.007  1.00  0.00     0.085 H 
HETATM   35  C   LIG     1     -15.812 -27.338  -0.372  1.00  0.00    -0.060 A 
HETATM   36  C   LIG     1     -15.525 -28.692  -0.591  1.00  0.00    -0.075 A 
HETATM   37  H   LIG     1     -16.698 -27.046   0.182  1.00  0.00     0.085 H 
HETATM   38  H   LIG     1     -16.202 -29.443  -0.193  1.00  0.00     0.084 H 
BRANCH  33  39
HETATM   39  S   LIG     1     -15.367 -24.651  -0.666  1.00  0.00     0.239 S 
HETATM   40  O   LIG     1     -16.609 -24.397  -1.362  1.00  0.00    -0.206 OA
HETATM   41  O   LIG     1     -14.185 -23.856  -0.918  1.00  0.00    -0.206 OA
BRANCH  39  42
HETATM   42  N   LIG     1     -15.651 -24.562   0.999  1.00  0.00    -0.225 NA
HETATM   43  H   LIG     1     -16.606 -24.306   1.264  1.00  0.00     0.136 HD
HETATM   44  H   LIG     1     -14.946 -23.977   1.463  1.00  0.00     0.136 HD
ENDBRANCH  39  42
ENDBRANCH  33  39
ENDBRANCH  26  29
ENDBRANCH  22  26
ENDBRANCH  12  16
ENDBRANCH   1  10
BRANCH   4  45
HETATM   45  C   LIG     1      -6.087 -36.419  -8.075  1.00  0.00    -0.010 C 
HETATM   46  H   LIG     1      -6.053 -35.912  -9.047  1.00  0.00     0.044 H 
HETATM   47  H   LIG     1      -6.788 -37.258  -8.172  1.00  0.00     0.044 H 
BRANCH  45  48
HETATM   48  C   LIG     1      -4.692 -36.951  -7.733  1.00  0.00     0.000 C 
HETATM   49  H   LIG     1      -4.001 -36.121  -7.539  1.00  0.00     0.064 H 
HETATM   50  H   LIG     1      -4.282 -37.538  -8.563  1.00  0.00     0.064 H 
BRANCH  48  51
HETATM   51  N   LIG     1      -4.693 -37.809  -6.560  1.00  0.00    -0.360 N 
HETATM   52  C   LIG     1      -3.636 -37.782  -5.667  1.00  0.00     0.221 C 
HETATM   53  O   LIG     1      -2.651 -37.069  -5.813  1.00  0.00    -0.273 OA
HETATM   54  H   LIG     1      -5.353 -38.573  -6.509  1.00  0.00     0.162 HD
BRANCH  52  55
HETATM   55  C   LIG     1      -3.810 -38.750  -4.497  1.00  0.00     0.024 C 
HETATM   56  C   LIG     1      -2.946 -38.338  -3.301  1.00  0.00    -0.051 C 
HETATM   57  C   LIG     1      -3.561 -37.211  -2.467  1.00  0.00    -0.040 C 
HETATM   58  H   LIG     1      -1.945 -38.031  -3.631  1.00  0.00     0.034 H 
HETATM   59  H   LIG     1      -2.805 -39.215  -2.657  1.00  0.00     0.034 H 
HETATM   60  C   LIG     1      -4.995 -37.517  -2.043  1.00  0.00     0.035 C 
HETATM   61  H   LIG     1      -3.539 -36.276  -3.038  1.00  0.00     0.036 H 
HETATM   62  H   LIG     1      -2.938 -37.065  -1.576  1.00  0.00     0.036 H 
HETATM   63  C   LIG     1      -5.878 -37.860  -3.237  1.00  0.00    -0.040 C 
HETATM   64  H   LIG     1      -5.422 -36.658  -1.513  1.00  0.00     0.082 H 
HETATM   65  C   LIG     1      -5.284 -38.952  -4.127  1.00  0.00    -0.051 C 
HETATM   66  H   LIG     1      -6.054 -36.956  -3.830  1.00  0.00     0.036 H 
HETATM   67  H   LIG     1      -6.857 -38.207  -2.883  1.00  0.00     0.036 H 
HETATM   68  H   LIG     1      -5.893 -39.041  -5.035  1.00  0.00     0.034 H 
HETATM   69  H   LIG     1      -5.373 -39.912  -3.602  1.00  0.00     0.034 H 
HETATM   70  H   LIG     1      -3.442 -39.722  -4.856  1.00  0.00     0.054 H 
BRANCH  60  71
HETATM   71  O   LIG     1      -4.998 -38.619  -1.139  1.00  0.00    -0.396 OA
HETATM   72  H   LIG     1      -4.583 -38.314  -0.313  1.00  0.00     0.210 HD
ENDBRANCH  60  71
ENDBRANCH  52  55
ENDBRANCH  48  51
ENDBRANCH  45  48
ENDBRANCH   4  45
TORSDOF 11
ENDMDL
MODEL 6
REMARK minimizedAffinity -6.2039032
REMARK minimizedRMSD -1
REMARK  11 active torsions:
REMARK  status: ('A' for Active; 'I' for Inactive)
REMARK    1  A    between atoms: N_1  and  S_2 
REMARK    2  A    between atoms: S_2  and  C_5 
REMARK    3  A    between atoms: C_8  and  C_9 
REMARK    4  A    between atoms: C_9  and  C_10 
REMARK    5  A    between atoms: C_14  and  N_15 
REMARK       I    between atoms: N_15  and  C_16 
REMARK       I    between atoms: C_16  and  N_18 
REMARK    6  A    between atoms: N_18  and  C_19 
REMARK    7  A    between atoms: C_22  and  C_23 
REMARK    8  A    between atoms: C_23  and  C_24 
REMARK    9  A    between atoms: C_24  and  N_25 
REMARK       I    between atoms: N_25  and  C_26 
REMARK   10  A    between atoms: C_26  and  C_28 
REMARK   11  A    between atoms: C_31  and  O_32 
ROOT
HETATM    1  C   LIG     1      -7.514 -33.725  -5.077  1.00  0.00     0.034 A 
HETATM    2  C   LIG     1      -8.068 -33.679  -6.349  1.00  0.00    -0.059 A 
HETATM    3  C   LIG     1      -7.616 -34.568  -7.323  1.00  0.00    -0.057 A 
HETATM    4  C   LIG     1      -6.627 -35.491  -6.987  1.00  0.00     0.035 A 
HETATM    5  N   LIG     1      -6.092 -35.554  -5.744  1.00  0.00    -0.264 NA
HETATM    6  C   LIG     1      -6.530 -34.670  -4.822  1.00  0.00     0.023 A 
HETATM    7  H   LIG     1      -8.827 -32.941  -6.593  1.00  0.00     0.086 H 
HETATM    8  H   LIG     1      -8.026 -34.527  -8.326  1.00  0.00     0.086 H 
HETATM    9  H   LIG     1      -6.051 -34.749  -3.850  1.00  0.00     0.117 H 
ENDROOT
BRANCH   1  10
HETATM   10  N   LIG     1      -7.997 -32.834  -4.097  1.00  0.00    -0.209 NA
HETATM   11  C   LIG     1      -9.198 -33.114  -3.454  1.00  0.00     0.303 C 
HETATM   12  N   LIG     1      -9.517 -32.101  -2.572  1.00  0.00    -0.313 N 
HETATM   13  O   LIG     1      -9.832 -34.152  -3.650  1.00  0.00    -0.253 OA
HETATM   14  H   LIG     1      -8.781 -31.433  -2.386  1.00  0.00     0.170 HD
HETATM   15  H   LIG     1      -8.011 -31.876  -4.429  1.00  0.00     0.138 HD
BRANCH  12  16
HETATM   16  C   LIG     1     -10.613 -32.071  -1.679  1.00  0.00     0.036 C 
HETATM   17  C   LIG     1     -10.568 -32.670  -0.421  1.00  0.00    -0.057 C 
HETATM   18  C   LIG     1     -11.585 -32.442   0.496  1.00  0.00    -0.080 C 
HETATM   19  H   LIG     1      -9.738 -33.290  -0.099  1.00  0.00     0.086 H 
HETATM   20  C   LIG     1     -12.675 -31.656   0.139  1.00  0.00    -0.076 C 
HETATM   21  H   LIG     1     -11.523 -32.879   1.489  1.00  0.00     0.083 H 
HETATM   22  C   LIG     1     -12.863 -31.231  -1.184  1.00  0.00    -0.052 C 
HETATM   23  H   LIG     1     -13.424 -31.449   0.899  1.00  0.00     0.084 H 
HETATM   24  C   LIG     1     -11.780 -31.386  -2.069  1.00  0.00    -0.051 C 
HETATM   25  H   LIG     1     -11.847 -30.961  -3.069  1.00  0.00     0.087 H 
BRANCH  22  26
HETATM   26  C   LIG     1     -14.166 -30.584  -1.643  1.00  0.00    -0.017 C 
HETATM   27  H   LIG     1     -14.228 -30.728  -2.730  1.00  0.00     0.047 H 
HETATM   28  H   LIG     1     -15.010 -31.124  -1.193  1.00  0.00     0.047 H 
BRANCH  26  29
HETATM   29  C   LIG     1     -14.385 -29.093  -1.342  1.00  0.00    -0.054 A 
HETATM   30  C   LIG     1     -13.508 -28.082  -1.763  1.00  0.00    -0.075 A 
HETATM   31  C   LIG     1     -13.814 -26.728  -1.605  1.00  0.00    -0.060 A 
HETATM   32  H   LIG     1     -12.571 -28.322  -2.258  1.00  0.00     0.084 H 
HETATM   33  C   LIG     1     -14.961 -26.361  -0.906  1.00  0.00     0.074 A 
HETATM   34  H   LIG     1     -13.138 -26.001  -2.046  1.00  0.00     0.085 H 
HETATM   35  C   LIG     1     -15.798 -27.339  -0.379  1.00  0.00    -0.060 A 
HETATM   36  C   LIG     1     -15.516 -28.693  -0.607  1.00  0.00    -0.075 A 
HETATM   37  H   LIG     1     -16.675 -27.048   0.188  1.00  0.00     0.085 H 
HETATM   38  H   LIG     1     -16.189 -29.444  -0.203  1.00  0.00     0.084 H 
BRANCH  33  39
HETATM   39  S   LIG     1     -15.354 -24.651  -0.670  1.00  0.00     0.239 S 
HETATM   40  O   LIG     1     -16.588 -24.386  -1.376  1.00  0.00    -0.206 OA
HETATM   41  O   LIG     1     -14.165 -23.859  -0.904  1.00  0.00    -0.206 OA
BRANCH  39  42
HETATM   42  N   LIG     1     -15.653 -24.576   0.993  1.00  0.00    -0.225 NA
HETATM   43  H   LIG     1     -16.610 -24.319   1.251  1.00  0.00     0.136 HD
HETATM   44  H   LIG     1     -14.951 -23.998   1.469  1.00  0.00     0.136 HD
ENDBRANCH  39  42
ENDBRANCH  33  39
ENDBRANCH  26  29
ENDBRANCH  22  26
ENDBRANCH  12  16
ENDBRANCH   1  10
BRANCH   4  45
HETATM   45  C   LIG     1      -6.104 -36.448  -8.031  1.00  0.00    -0.010 C 
HETATM   46  H   LIG     1      -6.955 -36.964  -8.491  1.00  0.00     0.044 H 
HETATM   47  H   LIG     1      -5.490 -37.212  -7.538  1.00  0.00     0.044 H 
BRANCH  45  48
HETATM   48  C   LIG     1      -5.284 -35.753  -9.121  1.00  0.00     0.000 C 
HETATM   49  H   LIG     1      -5.946 -35.244  -9.834  1.00  0.00     0.064 H 
HETATM   50  H   LIG     1      -4.686 -36.478  -9.685  1.00  0.00     0.064 H 
BRANCH  48  51
HETATM   51  N   LIG     1      -4.366 -34.763  -8.586  1.00  0.00    -0.360 N 
HETATM   52  C   LIG     1      -4.536 -33.419  -8.867  1.00  0.00     0.221 C 
HETATM   53  O   LIG     1      -5.435 -32.990  -9.581  1.00  0.00    -0.273 OA
HETATM   54  H   LIG     1      -3.486 -35.068  -8.191  1.00  0.00     0.162 HD
BRANCH  52  55
HETATM   55  C   LIG     1      -3.476 -32.527  -8.220  1.00  0.00     0.024 C 
HETATM   56  C   LIG     1      -4.098 -31.247  -7.653  1.00  0.00    -0.051 C 
HETATM   57  C   LIG     1      -4.767 -31.448  -6.291  1.00  0.00    -0.040 C 
HETATM   58  H   LIG     1      -4.832 -30.828  -8.352  1.00  0.00     0.034 H 
HETATM   59  H   LIG     1      -3.305 -30.495  -7.547  1.00  0.00     0.034 H 
HETATM   60  C   LIG     1      -3.840 -32.117  -5.280  1.00  0.00     0.035 C 
HETATM   61  H   LIG     1      -5.673 -32.052  -6.412  1.00  0.00     0.036 H 
HETATM   62  H   LIG     1      -5.076 -30.466  -5.913  1.00  0.00     0.036 H 
HETATM   63  C   LIG     1      -3.272 -33.428  -5.811  1.00  0.00    -0.040 C 
HETATM   64  H   LIG     1      -4.378 -32.308  -4.345  1.00  0.00     0.082 H 
HETATM   65  C   LIG     1      -2.630 -33.287  -7.191  1.00  0.00    -0.051 C 
HETATM   66  H   LIG     1      -4.069 -34.179  -5.849  1.00  0.00     0.036 H 
HETATM   67  H   LIG     1      -2.509 -33.805  -5.120  1.00  0.00     0.036 H 
HETATM   68  H   LIG     1      -2.381 -34.286  -7.571  1.00  0.00     0.034 H 
HETATM   69  H   LIG     1      -1.678 -32.754  -7.077  1.00  0.00     0.034 H 
HETATM   70  H   LIG     1      -2.795 -32.237  -9.032  1.00  0.00     0.054 H 
BRANCH  60  71
HETATM   71  O   LIG     1      -2.758 -31.239  -4.975  1.00  0.00    -0.396 OA
HETATM   72  H   LIG     1      -3.127 -30.490  -4.476  1.00  0.00     0.210 HD
ENDBRANCH  60  71
ENDBRANCH  52  55
ENDBRANCH  48  51
ENDBRANCH  45  48
ENDBRANCH   4  45
TORSDOF 11
ENDMDL
MODEL 7
REMARK minimizedAffinity -6.16573
REMARK minimizedRMSD -1
REMARK  11 active torsions:
REMARK  status: ('A' for Active; 'I' for Inactive)
REMARK    1  A    between atoms: N_1  and  S_2 
REMARK    2  A    between atoms: S_2  and  C_5 
REMARK    3  A    between atoms: C_8  and  C_9 
REMARK    4  A    between atoms: C_9  and  C_10 
REMARK    5  A    between atoms: C_14  and  N_15 
REMARK       I    between atoms: N_15  and  C_16 
REMARK       I    between atoms: C_16  and  N_18 
REMARK    6  A    between atoms: N_18  and  C_19 
REMARK    7  A    between atoms: C_22  and  C_23 
REMARK    8  A    between atoms: C_23  and  C_24 
REMARK    9  A    between atoms: C_24  and  N_25 
REMARK       I    between atoms: N_25  and  C_26 
REMARK   10  A    between atoms: C_26  and  C_28 
REMARK   11  A    between atoms: C_31  and  O_32 
ROOT
HETATM    1  C   LIG     1     -10.086 -33.091  -1.647  1.00  0.00     0.034 A 
HETATM    2  C   LIG     1     -10.276 -32.283  -0.534  1.00  0.00    -0.059 A 
HETATM    3  C   LIG     1     -11.072 -31.144  -0.646  1.00  0.00    -0.057 A 
HETATM    4  C   LIG     1     -11.671 -30.857  -1.872  1.00  0.00     0.035 A 
HETATM    5  N   LIG     1     -11.505 -31.650  -2.958  1.00  0.00    -0.264 NA
HETATM    6  C   LIG     1     -10.712 -32.736  -2.833  1.00  0.00     0.023 A 
HETATM    7  H   LIG     1      -9.788 -32.517   0.407  1.00  0.00     0.086 H 
HETATM    8  H   LIG     1     -11.211 -30.494   0.211  1.00  0.00     0.086 H 
HETATM    9  H   LIG     1     -10.594 -33.322  -3.741  1.00  0.00     0.117 H 
ENDROOT
BRANCH   1  10
HETATM   10  N   LIG     1      -9.294 -34.250  -1.512  1.00  0.00    -0.209 NA
HETATM   11  C   LIG     1      -8.302 -34.511  -2.451  1.00  0.00     0.303 C 
HETATM   12  N   LIG     1      -7.677 -35.710  -2.168  1.00  0.00    -0.313 N 
HETATM   13  O   LIG     1      -8.029 -33.732  -3.366  1.00  0.00    -0.253 OA
HETATM   14  H   LIG     1      -7.886 -36.110  -1.263  1.00  0.00     0.170 HD
HETATM   15  H   LIG     1      -9.858 -35.082  -1.382  1.00  0.00     0.138 HD
BRANCH  12  16
HETATM   16  C   LIG     1      -6.567 -36.265  -2.845  1.00  0.00     0.036 C 
HETATM   17  C   LIG     1      -5.354 -35.589  -2.970  1.00  0.00    -0.057 C 
HETATM   18  C   LIG     1      -4.236 -36.249  -3.459  1.00  0.00    -0.080 C 
HETATM   19  H   LIG     1      -5.227 -34.557  -2.659  1.00  0.00     0.086 H 
HETATM   20  C   LIG     1      -4.339 -37.572  -3.875  1.00  0.00    -0.076 C 
HETATM   21  H   LIG     1      -3.284 -35.728  -3.516  1.00  0.00     0.083 H 
HETATM   22  C   LIG     1      -5.586 -38.206  -3.978  1.00  0.00    -0.052 C 
HETATM   23  H   LIG     1      -3.433 -38.078  -4.197  1.00  0.00     0.084 H 
HETATM   24  C   LIG     1      -6.688 -37.560  -3.386  1.00  0.00    -0.051 C 
HETATM   25  H   LIG     1      -7.645 -38.075  -3.343  1.00  0.00     0.087 H 
BRANCH  22  26
HETATM   26  C   LIG     1      -5.745 -39.563  -4.659  1.00  0.00    -0.017 C 
HETATM   27  H   LIG     1      -6.673 -39.519  -5.244  1.00  0.00     0.047 H 
HETATM   28  H   LIG     1      -4.917 -39.704  -5.367  1.00  0.00     0.047 H 
BRANCH  26  29
HETATM   29  C   LIG     1      -5.791 -40.820  -3.776  1.00  0.00    -0.054 A 
HETATM   30  C   LIG     1      -5.374 -40.842  -2.437  1.00  0.00    -0.075 A 
HETATM   31  C   LIG     1      -5.571 -41.958  -1.622  1.00  0.00    -0.060 A 
HETATM   32  H   LIG     1      -4.909 -39.972  -1.980  1.00  0.00     0.084 H 
HETATM   33  C   LIG     1      -6.087 -43.128  -2.173  1.00  0.00     0.074 A 
HETATM   34  H   LIG     1      -5.318 -41.867  -0.569  1.00  0.00     0.085 H 
HETATM   35  C   LIG     1      -6.411 -43.177  -3.525  1.00  0.00    -0.060 A 
HETATM   36  C   LIG     1      -6.274 -42.027  -4.315  1.00  0.00    -0.075 A 
HETATM   37  H   LIG     1      -6.787 -44.098  -3.955  1.00  0.00     0.085 H 
HETATM   38  H   LIG     1      -6.547 -42.077  -5.365  1.00  0.00     0.084 H 
BRANCH  33  39
HETATM   39  S   LIG     1      -6.321 -44.563  -1.164  1.00  0.00     0.239 S 
HETATM   40  O   LIG     1      -5.737 -45.687  -1.863  1.00  0.00    -0.206 OA
HETATM   41  O   LIG     1      -7.690 -44.592  -0.697  1.00  0.00    -0.206 OA
BRANCH  39  42
HETATM   42  N   LIG     1      -5.368 -44.212   0.189  1.00  0.00    -0.225 NA
HETATM   43  H   LIG     1      -4.578 -44.844   0.340  1.00  0.00     0.136 HD
HETATM   44  H   LIG     1      -5.946 -44.101   1.029  1.00  0.00     0.136 HD
ENDBRANCH  39  42
ENDBRANCH  33  39
ENDBRANCH  26  29
ENDBRANCH  22  26
ENDBRANCH  12  16
ENDBRANCH   1  10
BRANCH   4  45
HETATM   45  C   LIG     1     -12.519 -29.618  -2.024  1.00  0.00    -0.010 C 
HETATM   46  H   LIG     1     -12.504 -29.065  -1.077  1.00  0.00     0.044 H 
HETATM   47  H   LIG     1     -13.558 -29.917  -2.208  1.00  0.00     0.044 H 
BRANCH  45  48
HETATM   48  C   LIG     1     -12.039 -28.700  -3.153  1.00  0.00     0.000 C 
HETATM   49  H   LIG     1     -12.188 -27.647  -2.882  1.00  0.00     0.064 H 
HETATM   50  H   LIG     1     -12.600 -28.888  -4.075  1.00  0.00     0.064 H 
BRANCH  48  51
HETATM   51  N   LIG     1     -10.631 -28.882  -3.461  1.00  0.00    -0.360 N 
HETATM   52  C   LIG     1     -10.069 -28.276  -4.571  1.00  0.00     0.221 C 
HETATM   53  O   LIG     1     -10.708 -27.583  -5.354  1.00  0.00    -0.273 OA
HETATM   54  H   LIG     1     -10.115 -29.616  -2.996  1.00  0.00     0.162 HD
BRANCH  52  55
HETATM   55  C   LIG     1      -8.580 -28.580  -4.736  1.00  0.00     0.024 C 
HETATM   56  C   LIG     1      -8.257 -30.022  -4.332  1.00  0.00    -0.051 C 
HETATM   57  C   LIG     1      -8.591 -31.045  -5.420  1.00  0.00    -0.040 C 
HETATM   58  H   LIG     1      -8.786 -30.296  -3.411  1.00  0.00     0.034 H 
HETATM   59  H   LIG     1      -7.186 -30.086  -4.106  1.00  0.00     0.034 H 
HETATM   60  C   LIG     1      -7.969 -30.688  -6.767  1.00  0.00     0.035 C 
HETATM   61  H   LIG     1      -9.679 -31.126  -5.528  1.00  0.00     0.036 H 
HETATM   62  H   LIG     1      -8.222 -32.025  -5.094  1.00  0.00     0.036 H 
HETATM   63  C   LIG     1      -8.343 -29.278  -7.208  1.00  0.00    -0.040 C 
HETATM   64  H   LIG     1      -8.291 -31.403  -7.532  1.00  0.00     0.082 H 
HETATM   65  C   LIG     1      -8.068 -28.222  -6.137  1.00  0.00    -0.051 C 
HETATM   66  H   LIG     1      -9.403 -29.254  -7.487  1.00  0.00     0.036 H 
HETATM   67  H   LIG     1      -7.770 -29.008  -8.104  1.00  0.00     0.036 H 
HETATM   68  H   LIG     1      -8.496 -27.265  -6.462  1.00  0.00     0.034 H 
HETATM   69  H   LIG     1      -6.984 -28.070  -6.073  1.00  0.00     0.034 H 
HETATM   70  H   LIG     1      -8.060 -27.912  -4.034  1.00  0.00     0.054 H 
BRANCH  60  71
HETATM   71  O   LIG     1      -6.549 -30.777  -6.673  1.00  0.00    -0.396 OA
HETATM   72  H   LIG     1      -6.326 -31.718  -6.569  1.00  0.00     0.210 HD
ENDBRANCH  60  71
ENDBRANCH  52  55
ENDBRANCH  48  51
ENDBRANCH  45  48
ENDBRANCH   4  45
TORSDOF 11
ENDMDL
MODEL 8
REMARK minimizedAffinity -5.86798525
REMARK minimizedRMSD -1
REMARK  11 active torsions:
REMARK  status: ('A' for Active; 'I' for Inactive)
REMARK    1  A    between atoms: N_1  and  S_2 
REMARK    2  A    between atoms: S_2  and  C_5 
REMARK    3  A    between atoms: C_8  and  C_9 
REMARK    4  A    between atoms: C_9  and  C_10 
REMARK    5  A    between atoms: C_14  and  N_15 
REMARK       I    between atoms: N_15  and  C_16 
REMARK       I    between atoms: C_16  and  N_18 
REMARK    6  A    between atoms: N_18  and  C_19 
REMARK    7  A    between atoms: C_22  and  C_23 
REMARK    8  A    between atoms: C_23  and  C_24 
REMARK    9  A    between atoms: C_24  and  N_25 
REMARK       I    between atoms: N_25  and  C_26 
REMARK   10  A    between atoms: C_26  and  C_28 
REMARK   11  A    between atoms: C_31  and  O_32 
ROOT
HETATM    1  C   LIG     1     -10.432 -32.840  -1.635  1.00  0.00     0.034 A 
HETATM    2  C   LIG     1     -10.668 -32.116  -0.474  1.00  0.00    -0.059 A 
HETATM    3  C   LIG     1     -11.408 -30.936  -0.544  1.00  0.00    -0.057 A 
HETATM    4  C   LIG     1     -11.905 -30.524  -1.779  1.00  0.00     0.035 A 
HETATM    5  N   LIG     1     -11.695 -31.233  -2.914  1.00  0.00    -0.264 NA
HETATM    6  C   LIG     1     -10.958 -32.361  -2.827  1.00  0.00     0.023 A 
HETATM    7  H   LIG     1     -10.258 -32.448   0.475  1.00  0.00     0.086 H 
HETATM    8  H   LIG     1     -11.580 -30.352   0.353  1.00  0.00     0.086 H 
HETATM    9  H   LIG     1     -10.800 -32.877  -3.770  1.00  0.00     0.117 H 
ENDROOT
BRANCH   1  10
HETATM   10  N   LIG     1      -9.700 -34.041  -1.545  1.00  0.00    -0.209 NA
HETATM   11  C   LIG     1      -8.372 -34.063  -1.958  1.00  0.00     0.303 C 
HETATM   12  N   LIG     1      -7.852 -35.336  -1.834  1.00  0.00    -0.313 N 
HETATM   13  O   LIG     1      -7.775 -33.054  -2.337  1.00  0.00    -0.253 OA
HETATM   14  H   LIG     1      -8.417 -35.991  -1.310  1.00  0.00     0.170 HD
HETATM   15  H   LIG     1     -10.194 -34.820  -1.966  1.00  0.00     0.138 HD
BRANCH  12  16
HETATM   16  C   LIG     1      -6.516 -35.731  -2.073  1.00  0.00     0.036 C 
HETATM   17  C   LIG     1      -5.537 -35.693  -1.081  1.00  0.00    -0.057 C 
HETATM   18  C   LIG     1      -4.298 -36.278  -1.302  1.00  0.00    -0.080 C 
HETATM   19  H   LIG     1      -5.712 -35.252  -0.105  1.00  0.00     0.086 H 
HETATM   20  C   LIG     1      -4.015 -36.857  -2.534  1.00  0.00    -0.076 C 
HETATM   21  H   LIG     1      -3.554 -36.280  -0.509  1.00  0.00     0.083 H 
HETATM   22  C   LIG     1      -4.887 -36.710  -3.623  1.00  0.00    -0.052 C 
HETATM   23  H   LIG     1      -3.059 -37.359  -2.654  1.00  0.00     0.084 H 
HETATM   24  C   LIG     1      -6.173 -36.205  -3.354  1.00  0.00    -0.051 C 
HETATM   25  H   LIG     1      -6.913 -36.188  -4.151  1.00  0.00     0.087 H 
BRANCH  22  26
HETATM   26  C   LIG     1      -4.485 -37.123  -5.036  1.00  0.00    -0.017 C 
HETATM   27  H   LIG     1      -4.716 -36.274  -5.693  1.00  0.00     0.047 H 
HETATM   28  H   LIG     1      -3.398 -37.273  -5.067  1.00  0.00     0.047 H 
BRANCH  26  29
HETATM   29  C   LIG     1      -5.124 -38.385  -5.636  1.00  0.00    -0.054 A 
HETATM   30  C   LIG     1      -5.191 -39.614  -4.963  1.00  0.00    -0.075 A 
HETATM   31  C   LIG     1      -5.912 -40.695  -5.474  1.00  0.00    -0.060 A 
HETATM   32  H   LIG     1      -4.708 -39.752  -3.999  1.00  0.00     0.084 H 
HETATM   33  C   LIG     1      -6.483 -40.603  -6.740  1.00  0.00     0.074 A 
HETATM   34  H   LIG     1      -6.006 -41.580  -4.850  1.00  0.00     0.085 H 
HETATM   35  C   LIG     1      -6.344 -39.435  -7.483  1.00  0.00    -0.060 A 
HETATM   36  C   LIG     1      -5.679 -38.333  -6.928  1.00  0.00    -0.075 A 
HETATM   37  H   LIG     1      -6.767 -39.378  -8.480  1.00  0.00     0.085 H 
HETATM   38  H   LIG     1      -5.592 -37.423  -7.516  1.00  0.00     0.084 H 
BRANCH  33  39
HETATM   39  S   LIG     1      -7.378 -41.971  -7.418  1.00  0.00     0.239 S 
HETATM   40  O   LIG     1      -6.408 -42.924  -7.911  1.00  0.00    -0.206 OA
HETATM   41  O   LIG     1      -8.439 -41.468  -8.263  1.00  0.00    -0.206 OA
BRANCH  39  42
HETATM   42  N   LIG     1      -8.131 -42.623  -6.051  1.00  0.00    -0.225 NA
HETATM   43  H   LIG     1      -7.841 -43.573  -5.807  1.00  0.00     0.136 HD
HETATM   44  H   LIG     1      -9.152 -42.528  -6.111  1.00  0.00     0.136 HD
ENDBRANCH  39  42
ENDBRANCH  33  39
ENDBRANCH  26  29
ENDBRANCH  22  26
ENDBRANCH  12  16
ENDBRANCH   1  10
BRANCH   4  45
HETATM   45  C   LIG     1     -12.689 -29.238  -1.884  1.00  0.00    -0.010 C 
HETATM   46  H   LIG     1     -12.649 -28.724  -0.915  1.00  0.00     0.044 H 
HETATM   47  H   LIG     1     -13.742 -29.478  -2.080  1.00  0.00     0.044 H 
BRANCH  45  48
HETATM   48  C   LIG     1     -12.161 -28.303  -2.975  1.00  0.00     0.000 C 
HETATM   49  H   LIG     1     -12.205 -27.259  -2.641  1.00  0.00     0.064 H 
HETATM   50  H   LIG     1     -12.763 -28.386  -3.887  1.00  0.00     0.064 H 
BRANCH  48  51
HETATM   51  N   LIG     1     -10.785 -28.592  -3.342  1.00  0.00    -0.360 N 
HETATM   52  C   LIG     1     -10.259 -28.122  -4.531  1.00  0.00     0.221 C 
HETATM   53  O   LIG     1     -10.906 -27.466  -5.340  1.00  0.00    -0.273 OA
HETATM   54  H   LIG     1     -10.281 -29.310  -2.839  1.00  0.00     0.162 HD
BRANCH  52  55
HETATM   55  C   LIG     1      -8.800 -28.523  -4.748  1.00  0.00     0.024 C 
HETATM   56  C   LIG     1      -8.542 -29.959  -4.280  1.00  0.00    -0.051 C 
HETATM   57  C   LIG     1      -8.989 -31.017  -5.291  1.00  0.00    -0.040 C 
HETATM   58  H   LIG     1      -9.040 -30.150  -3.321  1.00  0.00     0.034 H 
HETATM   59  H   LIG     1      -7.466 -30.076  -4.101  1.00  0.00     0.034 H 
HETATM   60  C   LIG     1      -8.415 -30.771  -6.684  1.00  0.00     0.035 C 
HETATM   61  H   LIG     1     -10.083 -31.037  -5.344  1.00  0.00     0.036 H 
HETATM   62  H   LIG     1      -8.662 -31.999  -4.927  1.00  0.00     0.036 H 
HETATM   63  C   LIG     1      -8.729 -29.367  -7.186  1.00  0.00    -0.040 C 
HETATM   64  H   LIG     1      -8.816 -31.506  -7.391  1.00  0.00     0.082 H 
HETATM   65  C   LIG     1      -8.339 -28.274  -6.190  1.00  0.00    -0.051 C 
HETATM   66  H   LIG     1      -9.797 -29.294  -7.416  1.00  0.00     0.036 H 
HETATM   67  H   LIG     1      -8.186 -29.181  -8.121  1.00  0.00     0.036 H 
HETATM   68  H   LIG     1      -8.726 -27.312  -6.549  1.00  0.00     0.034 H 
HETATM   69  H   LIG     1      -7.246 -28.184  -6.185  1.00  0.00     0.034 H 
HETATM   70  H   LIG     1      -8.208 -27.852  -4.111  1.00  0.00     0.054 H 
BRANCH  60  71
HETATM   71  O   LIG     1      -7.000 -30.941  -6.651  1.00  0.00    -0.396 OA
HETATM   72  H   LIG     1      -6.827 -31.887  -6.504  1.00  0.00     0.210 HD
ENDBRANCH  60  71
ENDBRANCH  52  55
ENDBRANCH  48  51
ENDBRANCH  45  48
ENDBRANCH   4  45
TORSDOF 11
ENDMDL
MODEL 9
REMARK minimizedAffinity -5.64747381
REMARK minimizedRMSD -1
REMARK  11 active torsions:
REMARK  status: ('A' for Active; 'I' for Inactive)
REMARK    1  A    between atoms: N_1  and  S_2 
REMARK    2  A    between atoms: S_2  and  C_5 
REMARK    3  A    between atoms: C_8  and  C_9 
REMARK    4  A    between atoms: C_9  and  C_10 
REMARK    5  A    between atoms: C_14  and  N_15 
REMARK       I    between atoms: N_15  and  C_16 
REMARK       I    between atoms: C_16  and  N_18 
REMARK    6  A    between atoms: N_18  and  C_19 
REMARK    7  A    between atoms: C_22  and  C_23 
REMARK    8  A    between atoms: C_23  and  C_24 
REMARK    9  A    between atoms: C_24  and  N_25 
REMARK       I    between atoms: N_25  and  C_26 
REMARK   10  A    between atoms: C_26  and  C_28 
REMARK   11  A    between atoms: C_31  and  O_32 
ROOT
HETATM    1  C   LIG     1     -10.860 -32.524  -0.954  1.00  0.00     0.034 A 
HETATM    2  C   LIG     1     -10.938 -31.894   0.281  1.00  0.00    -0.059 A 
HETATM    3  C   LIG     1     -11.679 -30.721   0.404  1.00  0.00    -0.057 A 
HETATM    4  C   LIG     1     -12.337 -30.218  -0.718  1.00  0.00     0.035 A 
HETATM    5  N   LIG     1     -12.281 -30.835  -1.923  1.00  0.00    -0.264 NA
HETATM    6  C   LIG     1     -11.540 -31.959  -2.024  1.00  0.00     0.023 A 
HETATM    7  H   LIG     1     -10.404 -32.296   1.138  1.00  0.00     0.086 H 
HETATM    8  H   LIG     1     -11.729 -30.209   1.359  1.00  0.00     0.086 H 
HETATM    9  H   LIG     1     -11.510 -32.398  -3.017  1.00  0.00     0.117 H 
ENDROOT
BRANCH   1  10
HETATM   10  N   LIG     1     -10.123 -33.721  -1.057  1.00  0.00    -0.209 NA
HETATM   11  C   LIG     1      -8.854 -33.694  -1.625  1.00  0.00     0.303 C 
HETATM   12  N   LIG     1      -8.324 -34.968  -1.676  1.00  0.00    -0.313 N 
HETATM   13  O   LIG     1      -8.306 -32.650  -1.983  1.00  0.00    -0.253 OA
HETATM   14  H   LIG     1      -8.822 -35.672  -1.148  1.00  0.00     0.170 HD
HETATM   15  H   LIG     1     -10.664 -34.465  -1.483  1.00  0.00     0.138 HD
BRANCH  12  16
HETATM   16  C   LIG     1      -7.026 -35.328  -2.106  1.00  0.00     0.036 C 
HETATM   17  C   LIG     1      -5.921 -35.292  -1.256  1.00  0.00    -0.057 C 
HETATM   18  C   LIG     1      -4.713 -35.844  -1.660  1.00  0.00    -0.080 C 
HETATM   19  H   LIG     1      -5.969 -34.879  -0.254  1.00  0.00     0.086 H 
HETATM   20  C   LIG     1      -4.592 -36.387  -2.935  1.00  0.00    -0.076 C 
HETATM   21  H   LIG     1      -3.868 -35.849  -0.977  1.00  0.00     0.083 H 
HETATM   22  C   LIG     1      -5.607 -36.234  -3.890  1.00  0.00    -0.052 C 
HETATM   23  H   LIG     1      -3.651 -36.865  -3.198  1.00  0.00     0.084 H 
HETATM   24  C   LIG     1      -6.854 -35.763  -3.434  1.00  0.00    -0.051 C 
HETATM   25  H   LIG     1      -7.696 -35.744  -4.122  1.00  0.00     0.087 H 
BRANCH  22  26
HETATM   26  C   LIG     1      -5.396 -36.603  -5.355  1.00  0.00    -0.017 C 
HETATM   27  H   LIG     1      -5.916 -35.843  -5.953  1.00  0.00     0.047 H 
HETATM   28  H   LIG     1      -4.325 -36.528  -5.590  1.00  0.00     0.047 H 
BRANCH  26  29
HETATM   29  C   LIG     1      -5.857 -37.990  -5.831  1.00  0.00    -0.054 A 
HETATM   30  C   LIG     1      -6.344 -38.982  -4.967  1.00  0.00    -0.075 A 
HETATM   31  C   LIG     1      -6.896 -40.171  -5.448  1.00  0.00    -0.060 A 
HETATM   32  H   LIG     1      -6.337 -38.840  -3.889  1.00  0.00     0.084 H 
HETATM   33  C   LIG     1      -6.859 -40.442  -6.813  1.00  0.00     0.074 A 
HETATM   34  H   LIG     1      -7.347 -40.848  -4.727  1.00  0.00     0.085 H 
HETATM   35  C   LIG     1      -6.283 -39.528  -7.689  1.00  0.00    -0.060 A 
HETATM   36  C   LIG     1      -5.798 -38.307  -7.200  1.00  0.00    -0.075 A 
HETATM   37  H   LIG     1      -6.232 -39.756  -8.748  1.00  0.00     0.085 H 
HETATM   38  H   LIG     1      -5.366 -37.597  -7.900  1.00  0.00     0.084 H 
BRANCH  33  39
HETATM   39  S   LIG     1      -7.528 -41.956  -7.441  1.00  0.00     0.239 S 
HETATM   40  O   LIG     1      -8.534 -41.613  -8.422  1.00  0.00    -0.206 OA
HETATM   41  O   LIG     1      -7.824 -42.835  -6.331  1.00  0.00    -0.206 OA
BRANCH  39  42
HETATM   42  N   LIG     1      -6.200 -42.634  -8.240  1.00  0.00    -0.225 NA
HETATM   43  H   LIG     1      -6.311 -42.743  -9.251  1.00  0.00     0.136 HD
HETATM   44  H   LIG     1      -5.897 -43.501  -7.783  1.00  0.00     0.136 HD
ENDBRANCH  39  42
ENDBRANCH  33  39
ENDBRANCH  26  29
ENDBRANCH  22  26
ENDBRANCH  12  16
ENDBRANCH   1  10
BRANCH   4  45
HETATM   45  C   LIG     1     -13.127 -28.936  -0.615  1.00  0.00    -0.010 C 
HETATM   46  H   LIG     1     -12.697 -28.323   0.186  1.00  0.00     0.044 H 
HETATM   47  H   LIG     1     -14.157 -29.175  -0.323  1.00  0.00     0.044 H 
BRANCH  45  48
HETATM   48  C   LIG     1     -13.134 -28.133  -1.919  1.00  0.00     0.000 C 
HETATM   49  H   LIG     1     -13.596 -28.716  -2.726  1.00  0.00     0.064 H 
HETATM   50  H   LIG     1     -12.114 -27.884  -2.232  1.00  0.00     0.064 H 
BRANCH  48  51
HETATM   51  N   LIG     1     -13.865 -26.883  -1.802  1.00  0.00    -0.360 N 
HETATM   52  C   LIG     1     -13.667 -25.863  -2.716  1.00  0.00     0.221 C 
HETATM   53  O   LIG     1     -12.872 -25.938  -3.644  1.00  0.00    -0.273 OA
HETATM   54  H   LIG     1     -14.352 -26.675  -0.941  1.00  0.00     0.162 HD
BRANCH  52  55
HETATM   55  C   LIG     1     -14.520 -24.626  -2.435  1.00  0.00     0.024 C 
HETATM   56  C   LIG     1     -15.025 -24.615  -0.989  1.00  0.00    -0.051 C 
HETATM   57  C   LIG     1     -13.979 -24.127   0.016  1.00  0.00    -0.040 C 
HETATM   58  H   LIG     1     -15.369 -25.612  -0.688  1.00  0.00     0.034 H 
HETATM   59  H   LIG     1     -15.900 -23.955  -0.933  1.00  0.00     0.034 H 
HETATM   60  C   LIG     1     -13.376 -22.781  -0.377  1.00  0.00     0.035 C 
HETATM   61  H   LIG     1     -13.181 -24.873   0.108  1.00  0.00     0.036 H 
HETATM   62  H   LIG     1     -14.460 -24.041   0.998  1.00  0.00     0.036 H 
HETATM   63  C   LIG     1     -12.808 -22.806  -1.791  1.00  0.00    -0.040 C 
HETATM   64  H   LIG     1     -12.583 -22.504   0.326  1.00  0.00     0.082 H 
HETATM   65  C   LIG     1     -13.804 -23.328  -2.828  1.00  0.00    -0.051 C 
HETATM   66  H   LIG     1     -11.902 -23.421  -1.807  1.00  0.00     0.036 H 
HETATM   67  H   LIG     1     -12.513 -21.792  -2.087  1.00  0.00     0.036 H 
HETATM   68  H   LIG     1     -13.285 -23.458  -3.786  1.00  0.00     0.034 H 
HETATM   69  H   LIG     1     -14.567 -22.557  -2.993  1.00  0.00     0.034 H 
HETATM   70  H   LIG     1     -15.396 -24.711  -3.094  1.00  0.00     0.054 H 
BRANCH  60  71
HETATM   71  O   LIG     1     -14.381 -21.772  -0.304  1.00  0.00    -0.396 OA
HETATM   72  H   LIG     1     -14.598 -21.650   0.636  1.00  0.00     0.210 HD
ENDBRANCH  60  71
ENDBRANCH  52  55
ENDBRANCH  48  51
ENDBRANCH  45  48
ENDBRANCH   4  45
TORSDOF 11
ENDMDL
MODEL 10
REMARK minimizedAffinity -5.2910924
REMARK minimizedRMSD -1
REMARK  11 active torsions:
REMARK  status: ('A' for Active; 'I' for Inactive)
REMARK    1  A    between atoms: N_1  and  S_2 
REMARK    2  A    between atoms: S_2  and  C_5 
REMARK    3  A    between atoms: C_8  and  C_9 
REMARK    4  A    between atoms: C_9  and  C_10 
REMARK    5  A    between atoms: C_14  and  N_15 
REMARK       I    between atoms: N_15  and  C_16 
REMARK       I    between atoms: C_16  and  N_18 
REMARK    6  A    between atoms: N_18  and  C_19 
REMARK    7  A    between atoms: C_22  and  C_23 
REMARK    8  A    between atoms: C_23  and  C_24 
REMARK    9  A    between atoms: C_24  and  N_25 
REMARK       I    between atoms: N_25  and  C_26 
REMARK   10  A    between atoms: C_26  and  C_28 
REMARK   11  A    between atoms: C_31  and  O_32 
ROOT
HETATM    1  C   LIG     1     -10.078 -33.187  -1.757  1.00  0.00     0.034 A 
HETATM    2  C   LIG     1     -10.351 -32.425  -0.628  1.00  0.00    -0.059 A 
HETATM    3  C   LIG     1     -11.151 -31.291  -0.747  1.00  0.00    -0.057 A 
HETATM    4  C   LIG     1     -11.671 -30.960  -1.997  1.00  0.00     0.035 A 
HETATM    5  N   LIG     1     -11.426 -31.707  -3.101  1.00  0.00    -0.264 NA
HETATM    6  C   LIG     1     -10.630 -32.790  -2.967  1.00  0.00     0.023 A 
HETATM    7  H   LIG     1      -9.922 -32.693   0.333  1.00  0.00     0.086 H 
HETATM    8  H   LIG     1     -11.353 -30.677   0.124  1.00  0.00     0.086 H 
HETATM    9  H   LIG     1     -10.447 -33.338  -3.887  1.00  0.00     0.117 H 
ENDROOT
BRANCH   1  10
HETATM   10  N   LIG     1      -9.284 -34.343  -1.616  1.00  0.00    -0.209 NA
HETATM   11  C   LIG     1      -7.994 -34.352  -2.136  1.00  0.00     0.303 C 
HETATM   12  N   LIG     1      -7.405 -35.585  -1.937  1.00  0.00    -0.313 N 
HETATM   13  O   LIG     1      -7.480 -33.361  -2.657  1.00  0.00    -0.253 OA
HETATM   14  H   LIG     1      -7.893 -36.207  -1.308  1.00  0.00     0.170 HD
HETATM   15  H   LIG     1      -9.772 -35.178  -1.919  1.00  0.00     0.138 HD
BRANCH  12  16
HETATM   16  C   LIG     1      -6.075 -35.946  -2.250  1.00  0.00     0.036 C 
HETATM   17  C   LIG     1      -5.189 -36.437  -1.292  1.00  0.00    -0.057 C 
HETATM   18  C   LIG     1      -3.967 -36.968  -1.681  1.00  0.00    -0.080 C 
HETATM   19  H   LIG     1      -5.428 -36.462  -0.235  1.00  0.00     0.086 H 
HETATM   20  C   LIG     1      -3.604 -36.962  -3.023  1.00  0.00    -0.076 C 
HETATM   21  H   LIG     1      -3.299 -37.387  -0.932  1.00  0.00     0.083 H 
HETATM   22  C   LIG     1      -4.365 -36.273  -3.978  1.00  0.00    -0.052 C 
HETATM   23  H   LIG     1      -2.668 -37.439  -3.301  1.00  0.00     0.084 H 
HETATM   24  C   LIG     1      -5.643 -35.830  -3.586  1.00  0.00    -0.051 C 
HETATM   25  H   LIG     1      -6.306 -35.397  -4.332  1.00  0.00     0.087 H 
BRANCH  22  26
HETATM   26  C   LIG     1      -3.859 -36.048  -5.400  1.00  0.00    -0.017 C 
HETATM   27  H   LIG     1      -3.070 -35.287  -5.341  1.00  0.00     0.047 H 
HETATM   28  H   LIG     1      -3.394 -36.975  -5.763  1.00  0.00     0.047 H 
BRANCH  26  29
HETATM   29  C   LIG     1      -4.870 -35.612  -6.473  1.00  0.00    -0.054 A 
HETATM   30  C   LIG     1      -5.943 -36.410  -6.896  1.00  0.00    -0.075 A 
HETATM   31  C   LIG     1      -6.928 -35.923  -7.759  1.00  0.00    -0.060 A 
HETATM   32  H   LIG     1      -6.060 -37.429  -6.536  1.00  0.00     0.084 H 
HETATM   33  C   LIG     1      -6.787 -34.654  -8.314  1.00  0.00     0.074 A 
HETATM   34  H   LIG     1      -7.783 -36.561  -7.961  1.00  0.00     0.085 H 
HETATM   35  C   LIG     1      -5.677 -33.876  -8.002  1.00  0.00    -0.060 A 
HETATM   36  C   LIG     1      -4.734 -34.349  -7.080  1.00  0.00    -0.075 A 
HETATM   37  H   LIG     1      -5.558 -32.900  -8.459  1.00  0.00     0.085 H 
HETATM   38  H   LIG     1      -3.881 -33.723  -6.834  1.00  0.00     0.084 H 
BRANCH  33  39
HETATM   39  S   LIG     1      -8.009 -34.029  -9.431  1.00  0.00     0.239 S 
HETATM   40  O   LIG     1      -8.006 -34.878 -10.602  1.00  0.00    -0.206 OA
HETATM   41  O   LIG     1      -7.857 -32.594  -9.540  1.00  0.00    -0.206 OA
BRANCH  39  42
HETATM   42  N   LIG     1      -9.446 -34.288  -8.576  1.00  0.00    -0.225 NA
HETATM   43  H   LIG     1     -10.099 -34.944  -9.013  1.00  0.00     0.136 HD
HETATM   44  H   LIG     1      -9.893 -33.398  -8.327  1.00  0.00     0.136 HD
ENDBRANCH  39  42
ENDBRANCH  33  39
ENDBRANCH  26  29
ENDBRANCH  22  26
ENDBRANCH  12  16
ENDBRANCH   1  10
BRANCH   4  45
HETATM   45  C   LIG     1     -12.522 -29.723  -2.156  1.00  0.00    -0.010 C 
HETATM   46  H   LIG     1     -12.594 -29.221  -1.183  1.00  0.00     0.044 H 
HETATM   47  H   LIG     1     -13.538 -30.024  -2.441  1.00  0.00     0.044 H 
BRANCH  45  48
HETATM   48  C   LIG     1     -11.964 -28.743  -3.191  1.00  0.00     0.000 C 
HETATM   49  H   LIG     1     -12.119 -27.708  -2.863  1.00  0.00     0.064 H 
HETATM   50  H   LIG     1     -12.469 -28.864  -4.157  1.00  0.00     0.064 H 
BRANCH  48  51
HETATM   51  N   LIG     1     -10.542 -28.925  -3.424  1.00  0.00    -0.360 N 
HETATM   52  C   LIG     1      -9.956 -28.477  -4.595  1.00  0.00     0.221 C 
HETATM   53  O   LIG     1     -10.585 -27.932  -5.495  1.00  0.00    -0.273 OA
HETATM   54  H   LIG     1     -10.023 -29.563  -2.836  1.00  0.00     0.162 HD
BRANCH  52  55
HETATM   55  C   LIG     1      -8.455 -28.755  -4.665  1.00  0.00     0.024 C 
HETATM   56  C   LIG     1      -8.133 -30.189  -4.234  1.00  0.00    -0.051 C 
HETATM   57  C   LIG     1      -8.380 -31.223  -5.335  1.00  0.00    -0.040 C 
HETATM   58  H   LIG     1      -8.714 -30.468  -3.346  1.00  0.00     0.034 H 
HETATM   59  H   LIG     1      -7.076 -30.233  -3.941  1.00  0.00     0.034 H 
HETATM   60  C   LIG     1      -7.681 -30.861  -6.642  1.00  0.00     0.035 C 
HETATM   61  H   LIG     1      -9.457 -31.324  -5.510  1.00  0.00     0.036 H 
HETATM   62  H   LIG     1      -8.015 -32.195  -4.980  1.00  0.00     0.036 H 
HETATM   63  C   LIG     1      -8.052 -29.460  -7.114  1.00  0.00    -0.040 C 
HETATM   64  H   LIG     1      -7.942 -31.586  -7.421  1.00  0.00     0.082 H 
HETATM   65  C   LIG     1      -7.863 -28.395  -6.034  1.00  0.00    -0.051 C 
HETATM   66  H   LIG     1      -9.092 -29.457  -7.458  1.00  0.00     0.036 H 
HETATM   67  H   LIG     1      -7.429 -29.185  -7.973  1.00  0.00     0.036 H 
HETATM   68  H   LIG     1      -8.286 -27.447  -6.391  1.00  0.00     0.034 H 
HETATM   69  H   LIG     1      -6.788 -28.223  -5.903  1.00  0.00     0.034 H 
HETATM   70  H   LIG     1      -7.992 -28.074  -3.936  1.00  0.00     0.054 H 
BRANCH  60  71
HETATM   71  O   LIG     1      -6.268 -30.924  -6.458  1.00  0.00    -0.396 OA
HETATM   72  H   LIG     1      -6.036 -31.861  -6.335  1.00  0.00     0.210 HD
ENDBRANCH  60  71
ENDBRANCH  52  55
ENDBRANCH  48  51
ENDBRANCH  45  48
ENDBRANCH   4  45
TORSDOF 11
ENDMDL
