MODEL 1
REMARK minimizedAffinity -7.17743826
REMARK minimizedRMSD -1
REMARK  14 active torsions:
REMARK  status: ('A' for Active; 'I' for Inactive)
REMARK    1  A    between atoms: N_1  and  S_2 
REMARK    2  A    between atoms: S_2  and  C_5 
REMARK    3  A    between atoms: C_8  and  C_9 
REMARK    4  A    between atoms: C_9  and  C_10 
REMARK    5  A    between atoms: C_14  and  N_15 
REMARK       I    between atoms: N_15  and  C_16 
REMARK    6  A    between atoms: C_16  and  C_18 
REMARK    7  A    between atoms: C_18  and  C_19 
REMARK    8  A    between atoms: C_18  and  C_21 
REMARK    9  A    between atoms: C_19  and  S_20 
REMARK   10  A    between atoms: C_26  and  C_27 
REMARK   11  A    between atoms: C_27  and  C_28 
REMARK   12  A    between atoms: C_28  and  N_29 
REMARK       I    between atoms: N_29  and  C_30 
REMARK   13  A    between atoms: C_30  and  C_32 
REMARK   14  A    between atoms: C_36  and  O_38 
ROOT
HETATM    1  C   LIG     1      -9.656  17.049  66.240  1.00  0.00     0.059 C 
HETATM    2  H   LIG     1      -8.816  17.478  65.674  1.00  0.00     0.063 H 
ENDROOT
BRANCH   1   3
HETATM    3  C   LIG     1     -10.444  16.201  65.226  1.00  0.00     0.231 C 
HETATM    4  N   LIG     1     -10.189  14.837  65.227  1.00  0.00    -0.327 N 
HETATM    5  H   LIG     1      -9.435  14.506  65.822  1.00  0.00     0.169 HD
HETATM    6  O   LIG     1     -11.318  16.759  64.561  1.00  0.00    -0.272 OA
BRANCH   4   7
HETATM    7  C   LIG     1     -10.921  13.824  64.543  1.00  0.00     0.035 A 
HETATM    8  C   LIG     1     -12.311  13.712  64.582  1.00  0.00    -0.057 A 
HETATM    9  C   LIG     1     -12.959  12.633  63.969  1.00  0.00    -0.080 A 
HETATM   10  H   LIG     1     -12.933  14.432  65.102  1.00  0.00     0.086 H 
HETATM   11  C   LIG     1     -12.226  11.628  63.341  1.00  0.00    -0.076 A 
HETATM   12  H   LIG     1     -14.043  12.560  64.025  1.00  0.00     0.083 H 
HETATM   13  C   LIG     1     -10.829  11.700  63.292  1.00  0.00    -0.052 A 
HETATM   14  H   LIG     1     -12.756  10.769  62.936  1.00  0.00     0.084 H 
HETATM   15  C   LIG     1     -10.195  12.832  63.857  1.00  0.00    -0.051 A 
HETATM   16  H   LIG     1      -9.110  12.901  63.802  1.00  0.00     0.087 H 
BRANCH  13  17
HETATM   17  C   LIG     1     -10.001  10.501  62.862  1.00  0.00    -0.017 C 
HETATM   18  H   LIG     1     -10.254   9.629  63.477  1.00  0.00     0.047 H 
HETATM   19  H   LIG     1     -10.343  10.234  61.852  1.00  0.00     0.047 H 
BRANCH  17  20
HETATM   20  C   LIG     1      -8.492  10.634  62.830  1.00  0.00    -0.054 A 
HETATM   21  C   LIG     1      -7.702  10.181  63.899  1.00  0.00    -0.075 A 
HETATM   22  C   LIG     1      -6.301  10.236  63.833  1.00  0.00    -0.060 A 
HETATM   23  H   LIG     1      -8.173   9.754  64.784  1.00  0.00     0.084 H 
HETATM   24  C   LIG     1      -5.702  10.773  62.698  1.00  0.00     0.074 A 
HETATM   25  H   LIG     1      -5.706   9.859  64.660  1.00  0.00     0.085 H 
HETATM   26  C   LIG     1      -6.462  11.218  61.620  1.00  0.00    -0.060 A 
HETATM   27  C   LIG     1      -7.852  11.142  61.686  1.00  0.00    -0.075 A 
HETATM   28  H   LIG     1      -5.981  11.615  60.728  1.00  0.00     0.085 H 
HETATM   29  H   LIG     1      -8.435  11.465  60.827  1.00  0.00     0.084 H 
BRANCH  24  30
HETATM   30  S   LIG     1      -3.933  10.871  62.573  1.00  0.00     0.239 S 
HETATM   31  O   LIG     1      -3.485   9.921  61.553  1.00  0.00    -0.206 OA
HETATM   32  O   LIG     1      -3.353  10.932  63.879  1.00  0.00    -0.206 OA
BRANCH  30  33
HETATM   33  N   LIG     1      -3.714  12.395  61.896  1.00  0.00    -0.225 NA
HETATM   34  H   LIG     1      -3.294  12.319  60.975  1.00  0.00     0.136 HD
HETATM   35  H   LIG     1      -3.192  12.986  62.551  1.00  0.00     0.136 HD
ENDBRANCH  30  33
ENDBRANCH  24  30
ENDBRANCH  17  20
ENDBRANCH  13  17
ENDBRANCH   4   7
ENDBRANCH   1   3
BRANCH   1  36
HETATM   36  C   LIG     1     -10.540  18.284  66.611  1.00  0.00    -0.011 C 
HETATM   37  H   LIG     1     -10.914  18.180  67.635  1.00  0.00     0.050 H 
HETATM   38  H   LIG     1     -11.425  18.313  65.962  1.00  0.00     0.050 H 
BRANCH  36  39
HETATM   39  S   LIG     1      -9.774  19.956  66.533  1.00  0.00    -0.181 SA
HETATM   40  H   LIG     1      -8.879  19.794  67.520  1.00  0.00     0.101 HD
ENDBRANCH  36  39
ENDBRANCH   1  36
BRANCH   1  41
HETATM   41  C   LIG     1      -8.995  16.268  67.380  1.00  0.00    -0.020 C 
HETATM   42  C   LIG     1      -7.621  15.992  67.307  1.00  0.00     0.009 C 
HETATM   43  N   LIG     1      -6.862  15.452  68.284  1.00  0.00    -0.273 NA
HETATM   44  H   LIG     1      -7.029  16.196  66.421  1.00  0.00     0.115 H 
HETATM   45  C   LIG     1      -7.496  15.110  69.405  1.00  0.00     0.002 C 
HETATM   46  C   LIG     1      -8.864  15.206  69.548  1.00  0.00    -0.059 C 
HETATM   47  H   LIG     1      -6.873  14.729  70.206  1.00  0.00     0.114 H 
HETATM   48  C   LIG     1      -9.659  15.776  68.533  1.00  0.00    -0.047 C 
HETATM   49  H   LIG     1      -9.285  14.825  70.468  1.00  0.00     0.086 H 
BRANCH  48  50
HETATM   50  C   LIG     1     -11.170  15.715  68.745  1.00  0.00    -0.026 C 
HETATM   51  H   LIG     1     -11.639  16.342  67.970  1.00  0.00     0.042 H 
HETATM   52  H   LIG     1     -11.452  16.177  69.697  1.00  0.00     0.042 H 
BRANCH  50  53
HETATM   53  C   LIG     1     -11.803  14.309  68.686  1.00  0.00    -0.001 C 
HETATM   54  H   LIG     1     -12.790  14.369  68.213  1.00  0.00     0.064 H 
HETATM   55  H   LIG     1     -11.936  13.928  69.702  1.00  0.00     0.064 H 
BRANCH  53  56
HETATM   56  N   LIG     1     -11.061  13.340  67.892  1.00  0.00    -0.360 N 
HETATM   57  C   LIG     1     -11.367  11.999  67.930  1.00  0.00     0.221 C 
HETATM   58  O   LIG     1     -12.261  11.552  68.643  1.00  0.00    -0.273 OA
HETATM   59  H   LIG     1     -10.494  13.689  67.132  1.00  0.00     0.162 HD
BRANCH  57  60
HETATM   60  C   LIG     1     -10.451  11.099  67.088  1.00  0.00     0.024 C 
HETATM   61  H   LIG     1     -10.850  11.138  66.065  1.00  0.00     0.054 H 
HETATM   62  C   LIG     1      -9.020  11.673  67.049  1.00  0.00    -0.051 C 
HETATM   63  C   LIG     1      -8.247  11.430  68.352  1.00  0.00    -0.040 C 
HETATM   64  H   LIG     1      -9.043  12.751  66.849  1.00  0.00     0.034 H 
HETATM   65  H   LIG     1      -8.472  11.222  66.214  1.00  0.00     0.034 H 
HETATM   66  C   LIG     1      -8.296   9.972  68.809  1.00  0.00     0.035 C 
HETATM   67  H   LIG     1      -8.663  12.063  69.145  1.00  0.00     0.036 H 
HETATM   68  H   LIG     1      -7.208  11.742  68.204  1.00  0.00     0.036 H 
HETATM   69  H   LIG     1      -7.809   9.873  69.784  1.00  0.00     0.082 H 
HETATM   70  C   LIG     1      -9.737   9.475  68.898  1.00  0.00    -0.040 C 
HETATM   71  C   LIG     1     -10.446   9.637  67.553  1.00  0.00    -0.051 C 
HETATM   72  H   LIG     1     -10.277  10.027  69.676  1.00  0.00     0.036 H 
HETATM   73  H   LIG     1      -9.753   8.414  69.177  1.00  0.00     0.036 H 
HETATM   74  H   LIG     1     -11.456   9.224  67.628  1.00  0.00     0.034 H 
HETATM   75  H   LIG     1      -9.938   9.024  66.797  1.00  0.00     0.034 H 
BRANCH  66  76
HETATM   76  O   LIG     1      -7.602   9.127  67.891  1.00  0.00    -0.396 OA
HETATM   77  H   LIG     1      -6.950   9.660  67.407  1.00  0.00     0.210 HD
ENDBRANCH  66  76
ENDBRANCH  57  60
ENDBRANCH  53  56
ENDBRANCH  50  53
ENDBRANCH  48  50
ENDBRANCH   1  41
TORSDOF 14
ENDMDL
MODEL 2
REMARK minimizedAffinity -6.80562687
REMARK minimizedRMSD -1
REMARK  14 active torsions:
REMARK  status: ('A' for Active; 'I' for Inactive)
REMARK    1  A    between atoms: N_1  and  S_2 
REMARK    2  A    between atoms: S_2  and  C_5 
REMARK    3  A    between atoms: C_8  and  C_9 
REMARK    4  A    between atoms: C_9  and  C_10 
REMARK    5  A    between atoms: C_14  and  N_15 
REMARK       I    between atoms: N_15  and  C_16 
REMARK    6  A    between atoms: C_16  and  C_18 
REMARK    7  A    between atoms: C_18  and  C_19 
REMARK    8  A    between atoms: C_18  and  C_21 
REMARK    9  A    between atoms: C_19  and  S_20 
REMARK   10  A    between atoms: C_26  and  C_27 
REMARK   11  A    between atoms: C_27  and  C_28 
REMARK   12  A    between atoms: C_28  and  N_29 
REMARK       I    between atoms: N_29  and  C_30 
REMARK   13  A    between atoms: C_30  and  C_32 
REMARK   14  A    between atoms: C_36  and  O_38 
ROOT
HETATM    1  C   LIG     1     -10.260  11.696  64.158  1.00  0.00     0.059 C 
HETATM    2  H   LIG     1      -9.695  12.598  64.438  1.00  0.00     0.063 H 
ENDROOT
BRANCH   1   3
HETATM    3  C   LIG     1      -9.619  11.201  62.850  1.00  0.00     0.231 C 
HETATM    4  N   LIG     1      -8.315  11.611  62.605  1.00  0.00    -0.327 N 
HETATM    5  H   LIG     1      -7.911  12.283  63.248  1.00  0.00     0.169 HD
HETATM    6  O   LIG     1     -10.250  10.396  62.164  1.00  0.00    -0.272 OA
BRANCH   4   7
HETATM    7  C   LIG     1      -7.440  11.132  61.587  1.00  0.00     0.035 A 
HETATM    8  C   LIG     1      -7.474   9.831  61.084  1.00  0.00    -0.057 A 
HETATM    9  C   LIG     1      -6.520   9.396  60.157  1.00  0.00    -0.080 A 
HETATM   10  H   LIG     1      -8.216   9.107  61.405  1.00  0.00     0.086 H 
HETATM   11  C   LIG     1      -5.491  10.243  59.747  1.00  0.00    -0.076 A 
HETATM   12  H   LIG     1      -6.559   8.373  59.790  1.00  0.00     0.083 H 
HETATM   13  C   LIG     1      -5.417  11.551  60.239  1.00  0.00    -0.052 A 
HETATM   14  H   LIG     1      -4.727   9.852  59.079  1.00  0.00     0.084 H 
HETATM   15  C   LIG     1      -6.430  11.995  61.123  1.00  0.00    -0.051 A 
HETATM   16  H   LIG     1      -6.387  13.018  61.491  1.00  0.00     0.087 H 
BRANCH  13  17
HETATM   17  C   LIG     1      -4.172  12.395  60.025  1.00  0.00    -0.017 C 
HETATM   18  H   LIG     1      -3.422  12.158  60.789  1.00  0.00     0.047 H 
HETATM   19  H   LIG     1      -3.723  12.053  59.082  1.00  0.00     0.047 H 
BRANCH  17  20
HETATM   20  C   LIG     1      -4.318  13.902  59.960  1.00  0.00    -0.054 A 
HETATM   21  C   LIG     1      -5.245  14.504  59.093  1.00  0.00    -0.075 A 
HETATM   22  C   LIG     1      -5.432  15.894  59.090  1.00  0.00    -0.060 A 
HETATM   23  H   LIG     1      -5.851  13.888  58.429  1.00  0.00     0.084 H 
HETATM   24  C   LIG     1      -4.662  16.677  59.945  1.00  0.00     0.074 A 
HETATM   25  H   LIG     1      -6.169  16.340  58.429  1.00  0.00     0.085 H 
HETATM   26  C   LIG     1      -3.746  16.105  60.823  1.00  0.00    -0.060 A 
HETATM   27  C   LIG     1      -3.581  14.722  60.833  1.00  0.00    -0.075 A 
HETATM   28  H   LIG     1      -3.166  16.726  61.503  1.00  0.00     0.085 H 
HETATM   29  H   LIG     1      -2.884  14.282  61.543  1.00  0.00     0.084 H 
BRANCH  24  30
HETATM   30  S   LIG     1      -4.857  18.443  59.971  1.00  0.00     0.239 S 
HETATM   31  O   LIG     1      -3.795  19.041  59.160  1.00  0.00    -0.206 OA
HETATM   32  O   LIG     1      -5.154  18.882  61.299  1.00  0.00    -0.206 OA
BRANCH  30  33
HETATM   33  N   LIG     1      -6.272  18.651  59.086  1.00  0.00    -0.225 NA
HETATM   34  H   LIG     1      -6.085  19.167  58.231  1.00  0.00     0.136 HD
HETATM   35  H   LIG     1      -6.988  19.072  59.686  1.00  0.00     0.136 HD
ENDBRANCH  30  33
ENDBRANCH  24  30
ENDBRANCH  17  20
ENDBRANCH  13  17
ENDBRANCH   4   7
ENDBRANCH   1   3
BRANCH   1  36
HETATM   36  C   LIG     1     -11.688  12.230  63.811  1.00  0.00    -0.011 C 
HETATM   37  H   LIG     1     -12.435  11.723  64.430  1.00  0.00     0.050 H 
HETATM   38  H   LIG     1     -11.932  11.981  62.770  1.00  0.00     0.050 H 
BRANCH  36  39
HETATM   39  S   LIG     1     -12.017  14.029  64.014  1.00  0.00    -0.181 SA
HETATM   40  H   LIG     1     -11.880  14.091  65.348  1.00  0.00     0.101 HD
ENDBRANCH  36  39
ENDBRANCH   1  36
BRANCH   1  41
HETATM   41  C   LIG     1     -10.114  10.759  65.361  1.00  0.00    -0.020 C 
HETATM   42  C   LIG     1      -9.635   9.457  65.153  1.00  0.00     0.009 C 
HETATM   43  N   LIG     1      -9.308   8.564  66.111  1.00  0.00    -0.273 NA
HETATM   44  H   LIG     1      -9.481   9.041  64.163  1.00  0.00     0.115 H 
HETATM   45  C   LIG     1      -9.507   8.949  67.371  1.00  0.00     0.002 C 
HETATM   46  C   LIG     1     -10.099  10.150  67.700  1.00  0.00    -0.059 C 
HETATM   47  H   LIG     1      -9.191   8.250  68.137  1.00  0.00     0.114 H 
HETATM   48  C   LIG     1     -10.434  11.088  66.703  1.00  0.00    -0.047 C 
HETATM   49  H   LIG     1     -10.288  10.328  68.750  1.00  0.00     0.086 H 
BRANCH  48  50
HETATM   50  C   LIG     1     -11.198  12.325  67.170  1.00  0.00    -0.026 C 
HETATM   51  H   LIG     1     -12.085  11.977  67.721  1.00  0.00     0.042 H 
HETATM   52  H   LIG     1     -11.593  12.887  66.317  1.00  0.00     0.042 H 
BRANCH  50  53
HETATM   53  C   LIG     1     -10.414  13.302  68.070  1.00  0.00    -0.001 C 
HETATM   54  H   LIG     1      -9.697  13.866  67.462  1.00  0.00     0.064 H 
HETATM   55  H   LIG     1      -9.853  12.736  68.818  1.00  0.00     0.064 H 
BRANCH  53  56
HETATM   56  N   LIG     1     -11.230  14.312  68.728  1.00  0.00    -0.360 N 
HETATM   57  C   LIG     1     -11.954  14.020  69.862  1.00  0.00     0.221 C 
HETATM   58  O   LIG     1     -11.963  12.898  70.361  1.00  0.00    -0.273 OA
HETATM   59  H   LIG     1     -11.063  15.280  68.493  1.00  0.00     0.162 HD
BRANCH  57  60
HETATM   60  C   LIG     1     -12.816  15.172  70.397  1.00  0.00     0.024 C 
HETATM   61  H   LIG     1     -13.167  15.720  69.512  1.00  0.00     0.054 H 
HETATM   62  C   LIG     1     -14.058  14.622  71.126  1.00  0.00    -0.051 C 
HETATM   63  C   LIG     1     -13.733  14.069  72.520  1.00  0.00    -0.040 C 
HETATM   64  H   LIG     1     -14.533  13.830  70.534  1.00  0.00     0.034 H 
HETATM   65  H   LIG     1     -14.806  15.419  71.218  1.00  0.00     0.034 H 
HETATM   66  C   LIG     1     -12.922  15.045  73.371  1.00  0.00     0.035 C 
HETATM   67  H   LIG     1     -13.169  13.135  72.418  1.00  0.00     0.036 H 
HETATM   68  H   LIG     1     -14.674  13.822  73.024  1.00  0.00     0.036 H 
HETATM   69  H   LIG     1     -12.642  14.567  74.316  1.00  0.00     0.082 H 
HETATM   70  C   LIG     1     -11.667  15.504  72.633  1.00  0.00    -0.040 C 
HETATM   71  C   LIG     1     -12.036  16.144  71.293  1.00  0.00    -0.051 C 
HETATM   72  H   LIG     1     -10.995  14.654  72.470  1.00  0.00     0.036 H 
HETATM   73  H   LIG     1     -11.124  16.242  73.235  1.00  0.00     0.036 H 
HETATM   74  H   LIG     1     -11.127  16.512  70.810  1.00  0.00     0.034 H 
HETATM   75  H   LIG     1     -12.652  17.035  71.472  1.00  0.00     0.034 H 
BRANCH  66  76
HETATM   76  O   LIG     1     -13.689  16.207  73.686  1.00  0.00    -0.396 OA
HETATM   77  H   LIG     1     -14.633  15.982  73.633  1.00  0.00     0.210 HD
ENDBRANCH  66  76
ENDBRANCH  57  60
ENDBRANCH  53  56
ENDBRANCH  50  53
ENDBRANCH  48  50
ENDBRANCH   1  41
TORSDOF 14
ENDMDL
MODEL 3
REMARK minimizedAffinity -5.89660597
REMARK minimizedRMSD -1
REMARK  14 active torsions:
REMARK  status: ('A' for Active; 'I' for Inactive)
REMARK    1  A    between atoms: N_1  and  S_2 
REMARK    2  A    between atoms: S_2  and  C_5 
REMARK    3  A    between atoms: C_8  and  C_9 
REMARK    4  A    between atoms: C_9  and  C_10 
REMARK    5  A    between atoms: C_14  and  N_15 
REMARK       I    between atoms: N_15  and  C_16 
REMARK    6  A    between atoms: C_16  and  C_18 
REMARK    7  A    between atoms: C_18  and  C_19 
REMARK    8  A    between atoms: C_18  and  C_21 
REMARK    9  A    between atoms: C_19  and  S_20 
REMARK   10  A    between atoms: C_26  and  C_27 
REMARK   11  A    between atoms: C_27  and  C_28 
REMARK   12  A    between atoms: C_28  and  N_29 
REMARK       I    between atoms: N_29  and  C_30 
REMARK   13  A    between atoms: C_30  and  C_32 
REMARK   14  A    between atoms: C_36  and  O_38 
ROOT
HETATM    1  C   LIG     1      -8.826  10.412  64.281  1.00  0.00     0.059 C 
HETATM    2  H   LIG     1      -8.700  11.221  65.017  1.00  0.00     0.063 H 
ENDROOT
BRANCH   1   3
HETATM    3  C   LIG     1      -7.548  10.434  63.424  1.00  0.00     0.231 C 
HETATM    4  N   LIG     1      -7.726  10.487  62.048  1.00  0.00    -0.327 N 
HETATM    5  H   LIG     1      -8.675  10.407  61.699  1.00  0.00     0.169 HD
HETATM    6  O   LIG     1      -6.464  10.513  64.003  1.00  0.00    -0.272 OA
BRANCH   4   7
HETATM    7  C   LIG     1      -6.725  10.720  61.060  1.00  0.00     0.035 A 
HETATM    8  C   LIG     1      -6.071   9.704  60.364  1.00  0.00    -0.057 A 
HETATM    9  C   LIG     1      -5.027   9.999  59.479  1.00  0.00    -0.080 A 
HETATM   10  H   LIG     1      -6.326   8.658  60.496  1.00  0.00     0.086 H 
HETATM   11  C   LIG     1      -4.592  11.312  59.308  1.00  0.00    -0.076 A 
HETATM   12  H   LIG     1      -4.523   9.188  58.959  1.00  0.00     0.083 H 
HETATM   13  C   LIG     1      -5.216  12.357  59.999  1.00  0.00    -0.052 A 
HETATM   14  H   LIG     1      -3.733  11.499  58.667  1.00  0.00     0.084 H 
HETATM   15  C   LIG     1      -6.314  12.048  60.836  1.00  0.00    -0.051 A 
HETATM   16  H   LIG     1      -6.815  12.861  61.358  1.00  0.00     0.087 H 
BRANCH  13  17
HETATM   17  C   LIG     1      -4.596  13.743  60.041  1.00  0.00    -0.017 C 
HETATM   18  H   LIG     1      -4.736  14.188  61.034  1.00  0.00     0.047 H 
HETATM   19  H   LIG     1      -3.510  13.601  59.954  1.00  0.00     0.047 H 
BRANCH  17  20
HETATM   20  C   LIG     1      -5.024  14.762  59.004  1.00  0.00    -0.054 A 
HETATM   21  C   LIG     1      -5.833  15.856  59.352  1.00  0.00    -0.075 A 
HETATM   22  C   LIG     1      -6.163  16.838  58.406  1.00  0.00    -0.060 A 
HETATM   23  H   LIG     1      -6.191  15.966  60.375  1.00  0.00     0.084 H 
HETATM   24  C   LIG     1      -5.697  16.699  57.102  1.00  0.00     0.074 A 
HETATM   25  H   LIG     1      -6.771  17.689  58.699  1.00  0.00     0.085 H 
HETATM   26  C   LIG     1      -4.883  15.632  56.734  1.00  0.00    -0.060 A 
HETATM   27  C   LIG     1      -4.544  14.671  57.685  1.00  0.00    -0.075 A 
HETATM   28  H   LIG     1      -4.506  15.546  55.717  1.00  0.00     0.085 H 
HETATM   29  H   LIG     1      -3.884  13.857  57.395  1.00  0.00     0.084 H 
BRANCH  24  30
HETATM   30  S   LIG     1      -6.096  17.913  55.868  1.00  0.00     0.239 S 
HETATM   31  O   LIG     1      -5.153  17.775  54.756  1.00  0.00    -0.206 OA
HETATM   32  O   LIG     1      -6.376  19.170  56.491  1.00  0.00    -0.206 OA
BRANCH  30  33
HETATM   33  N   LIG     1      -7.567  17.346  55.284  1.00  0.00    -0.225 NA
HETATM   34  H   LIG     1      -7.485  17.082  54.307  1.00  0.00     0.136 HD
HETATM   35  H   LIG     1      -8.298  18.040  55.474  1.00  0.00     0.136 HD
ENDBRANCH  30  33
ENDBRANCH  24  30
ENDBRANCH  17  20
ENDBRANCH  13  17
ENDBRANCH   4   7
ENDBRANCH   1   3
BRANCH   1  36
HETATM   36  C   LIG     1     -10.008  10.894  63.379  1.00  0.00    -0.011 C 
HETATM   37  H   LIG     1     -10.789  10.126  63.348  1.00  0.00     0.050 H 
HETATM   38  H   LIG     1      -9.658  11.019  62.347  1.00  0.00     0.050 H 
BRANCH  36  39
HETATM   39  S   LIG     1     -10.870  12.455  63.837  1.00  0.00    -0.181 SA
HETATM   40  H   LIG     1     -11.397  12.040  64.999  1.00  0.00     0.101 HD
ENDBRANCH  36  39
ENDBRANCH   1  36
BRANCH   1  41
HETATM   41  C   LIG     1      -9.032   9.150  65.125  1.00  0.00    -0.020 C 
HETATM   42  C   LIG     1      -8.443   7.948  64.705  1.00  0.00     0.009 C 
HETATM   43  N   LIG     1      -8.401   6.793  65.402  1.00  0.00    -0.273 NA
HETATM   44  H   LIG     1      -7.952   7.842  63.744  1.00  0.00     0.115 H 
HETATM   45  C   LIG     1      -9.020   6.791  66.581  1.00  0.00     0.002 C 
HETATM   46  C   LIG     1      -9.750   7.866  67.043  1.00  0.00    -0.059 C 
HETATM   47  H   LIG     1      -8.936   5.879  67.162  1.00  0.00     0.114 H 
HETATM   48  C   LIG     1      -9.790   9.077  66.322  1.00  0.00    -0.047 C 
HETATM   49  H   LIG     1     -10.281   7.730  67.976  1.00  0.00     0.086 H 
BRANCH  48  50
HETATM   50  C   LIG     1     -10.729  10.153  66.861  1.00  0.00    -0.026 C 
HETATM   51  H   LIG     1     -11.675   9.660  67.135  1.00  0.00     0.042 H 
HETATM   52  H   LIG     1     -10.996  10.869  66.078  1.00  0.00     0.042 H 
BRANCH  50  53
HETATM   53  C   LIG     1     -10.217  10.944  68.083  1.00  0.00    -0.001 C 
HETATM   54  H   LIG     1     -10.796  11.868  68.191  1.00  0.00     0.064 H 
HETATM   55  H   LIG     1      -9.170  11.216  67.926  1.00  0.00     0.064 H 
BRANCH  53  56
HETATM   56  N   LIG     1     -10.361  10.255  69.358  1.00  0.00    -0.360 N 
HETATM   57  C   LIG     1     -11.566  10.223  70.022  1.00  0.00     0.221 C 
HETATM   58  O   LIG     1     -12.568  10.783  69.587  1.00  0.00    -0.273 OA
HETATM   59  H   LIG     1      -9.641   9.598  69.622  1.00  0.00     0.162 HD
BRANCH  57  60
HETATM   60  C   LIG     1     -11.537   9.515  71.385  1.00  0.00     0.024 C 
HETATM   61  H   LIG     1     -10.957  10.169  72.050  1.00  0.00     0.054 H 
HETATM   62  C   LIG     1     -12.961   9.408  71.966  1.00  0.00    -0.051 C 
HETATM   63  C   LIG     1     -13.799   8.315  71.290  1.00  0.00    -0.040 C 
HETATM   64  H   LIG     1     -13.489  10.366  71.871  1.00  0.00     0.034 H 
HETATM   65  H   LIG     1     -12.899   9.204  73.041  1.00  0.00     0.034 H 
HETATM   66  C   LIG     1     -13.076   6.970  71.223  1.00  0.00     0.035 C 
HETATM   67  H   LIG     1     -14.054   8.629  70.271  1.00  0.00     0.036 H 
HETATM   68  H   LIG     1     -14.741   8.208  71.838  1.00  0.00     0.036 H 
HETATM   69  H   LIG     1     -13.678   6.254  70.654  1.00  0.00     0.082 H 
HETATM   70  C   LIG     1     -11.701   7.118  70.576  1.00  0.00    -0.040 C 
HETATM   71  C   LIG     1     -10.856   8.141  71.338  1.00  0.00    -0.051 C 
HETATM   72  H   LIG     1     -11.810   7.426  69.530  1.00  0.00     0.036 H 
HETATM   73  H   LIG     1     -11.176   6.156  70.583  1.00  0.00     0.036 H 
HETATM   74  H   LIG     1      -9.860   8.189  70.888  1.00  0.00     0.034 H 
HETATM   75  H   LIG     1     -10.695   7.788  72.365  1.00  0.00     0.034 H 
BRANCH  66  76
HETATM   76  O   LIG     1     -12.884   6.429  72.530  1.00  0.00    -0.396 OA
HETATM   77  H   LIG     1     -13.552   6.807  73.127  1.00  0.00     0.210 HD
ENDBRANCH  66  76
ENDBRANCH  57  60
ENDBRANCH  53  56
ENDBRANCH  50  53
ENDBRANCH  48  50
ENDBRANCH   1  41
TORSDOF 14
ENDMDL
MODEL 4
REMARK minimizedAffinity -5.45451689
REMARK minimizedRMSD -1
REMARK  14 active torsions:
REMARK  status: ('A' for Active; 'I' for Inactive)
REMARK    1  A    between atoms: N_1  and  S_2 
REMARK    2  A    between atoms: S_2  and  C_5 
REMARK    3  A    between atoms: C_8  and  C_9 
REMARK    4  A    between atoms: C_9  and  C_10 
REMARK    5  A    between atoms: C_14  and  N_15 
REMARK       I    between atoms: N_15  and  C_16 
REMARK    6  A    between atoms: C_16  and  C_18 
REMARK    7  A    between atoms: C_18  and  C_19 
REMARK    8  A    between atoms: C_18  and  C_21 
REMARK    9  A    between atoms: C_19  and  S_20 
REMARK   10  A    between atoms: C_26  and  C_27 
REMARK   11  A    between atoms: C_27  and  C_28 
REMARK   12  A    between atoms: C_28  and  N_29 
REMARK       I    between atoms: N_29  and  C_30 
REMARK   13  A    between atoms: C_30  and  C_32 
REMARK   14  A    between atoms: C_36  and  O_38 
ROOT
HETATM    1  C   LIG     1      -7.417  10.421  60.951  1.00  0.00     0.059 C 
HETATM    2  H   LIG     1      -7.778  10.843  60.000  1.00  0.00     0.063 H 
ENDROOT
BRANCH   1   3
HETATM    3  C   LIG     1      -8.655  10.350  61.864  1.00  0.00     0.231 C 
HETATM    4  N   LIG     1      -8.742  11.308  62.865  1.00  0.00    -0.327 N 
HETATM    5  H   LIG     1      -7.944  11.923  62.991  1.00  0.00     0.169 HD
HETATM    6  O   LIG     1      -9.531   9.531  61.588  1.00  0.00    -0.272 OA
BRANCH   4   7
HETATM    7  C   LIG     1      -9.866  11.583  63.697  1.00  0.00     0.035 A 
HETATM    8  C   LIG     1     -11.112  11.977  63.210  1.00  0.00    -0.057 A 
HETATM    9  C   LIG     1     -12.145  12.330  64.087  1.00  0.00    -0.080 A 
HETATM   10  H   LIG     1     -11.320  12.049  62.147  1.00  0.00     0.086 H 
HETATM   11  C   LIG     1     -11.936  12.333  65.465  1.00  0.00    -0.076 A 
HETATM   12  H   LIG     1     -13.104  12.648  63.682  1.00  0.00     0.083 H 
HETATM   13  C   LIG     1     -10.695  11.955  65.990  1.00  0.00    -0.052 A 
HETATM   14  H   LIG     1     -12.737  12.678  66.114  1.00  0.00     0.084 H 
HETATM   15  C   LIG     1      -9.684  11.536  65.092  1.00  0.00    -0.051 A 
HETATM   16  H   LIG     1      -8.725  11.221  65.498  1.00  0.00     0.087 H 
BRANCH  13  17
HETATM   17  C   LIG     1     -10.357  12.206  67.449  1.00  0.00    -0.017 C 
HETATM   18  H   LIG     1      -9.269  12.200  67.590  1.00  0.00     0.047 H 
HETATM   19  H   LIG     1     -10.655  13.243  67.663  1.00  0.00     0.047 H 
BRANCH  17  20
HETATM   20  C   LIG     1     -10.974  11.309  68.503  1.00  0.00    -0.054 A 
HETATM   21  C   LIG     1     -10.596   9.962  68.620  1.00  0.00    -0.075 A 
HETATM   22  C   LIG     1     -11.112   9.155  69.645  1.00  0.00    -0.060 A 
HETATM   23  H   LIG     1      -9.872   9.535  67.926  1.00  0.00     0.084 H 
HETATM   24  C   LIG     1     -12.030   9.704  70.535  1.00  0.00     0.074 A 
HETATM   25  H   LIG     1     -10.791   8.121  69.734  1.00  0.00     0.085 H 
HETATM   26  C   LIG     1     -12.411  11.040  70.449  1.00  0.00    -0.060 A 
HETATM   27  C   LIG     1     -11.880  11.839  69.439  1.00  0.00    -0.075 A 
HETATM   28  H   LIG     1     -13.113  11.464  71.165  1.00  0.00     0.085 H 
HETATM   29  H   LIG     1     -12.161  12.889  69.399  1.00  0.00     0.084 H 
BRANCH  24  30
HETATM   30  S   LIG     1     -12.717   8.720  71.845  1.00  0.00     0.239 S 
HETATM   31  O   LIG     1     -13.785   9.484  72.492  1.00  0.00    -0.206 OA
HETATM   32  O   LIG     1     -11.668   8.083  72.579  1.00  0.00    -0.206 OA
BRANCH  30  33
HETATM   33  N   LIG     1     -13.494   7.497  70.990  1.00  0.00    -0.225 NA
HETATM   34  H   LIG     1     -14.497   7.536  71.144  1.00  0.00     0.136 HD
HETATM   35  H   LIG     1     -13.066   6.595  71.224  1.00  0.00     0.136 HD
ENDBRANCH  30  33
ENDBRANCH  24  30
ENDBRANCH  17  20
ENDBRANCH  13  17
ENDBRANCH   4   7
ENDBRANCH   1   3
BRANCH   1  36
HETATM   36  C   LIG     1      -6.469  11.523  61.526  1.00  0.00    -0.011 C 
HETATM   37  H   LIG     1      -5.689  11.059  62.139  1.00  0.00     0.050 H 
HETATM   38  H   LIG     1      -7.034  12.183  62.195  1.00  0.00     0.050 H 
BRANCH  36  39
HETATM   39  S   LIG     1      -5.581  12.611  60.337  1.00  0.00    -0.181 SA
HETATM   40  H   LIG     1      -4.806  11.672  59.771  1.00  0.00     0.101 HD
ENDBRANCH  36  39
ENDBRANCH   1  36
BRANCH   1  41
HETATM   41  C   LIG     1      -6.804   9.071  60.567  1.00  0.00    -0.020 C 
HETATM   42  C   LIG     1      -6.529   8.810  59.215  1.00  0.00     0.009 C 
HETATM   43  N   LIG     1      -5.859   7.744  58.729  1.00  0.00    -0.273 NA
HETATM   44  H   LIG     1      -6.846   9.470  58.415  1.00  0.00     0.115 H 
HETATM   45  C   LIG     1      -5.465   6.835  59.620  1.00  0.00     0.002 C 
HETATM   46  C   LIG     1      -5.792   6.911  60.957  1.00  0.00    -0.059 C 
HETATM   47  H   LIG     1      -4.879   6.010  59.231  1.00  0.00     0.114 H 
HETATM   48  C   LIG     1      -6.485   8.026  61.471  1.00  0.00    -0.047 C 
HETATM   49  H   LIG     1      -5.492   6.079  61.580  1.00  0.00     0.086 H 
BRANCH  48  50
HETATM   50  C   LIG     1      -6.905   7.943  62.937  1.00  0.00    -0.026 C 
HETATM   51  H   LIG     1      -7.432   8.878  63.183  1.00  0.00     0.042 H 
HETATM   52  H   LIG     1      -6.030   7.925  63.595  1.00  0.00     0.042 H 
BRANCH  50  53
HETATM   53  C   LIG     1      -7.814   6.754  63.312  1.00  0.00    -0.001 C 
HETATM   54  H   LIG     1      -8.264   6.932  64.295  1.00  0.00     0.064 H 
HETATM   55  H   LIG     1      -7.213   5.843  63.374  1.00  0.00     0.064 H 
BRANCH  53  56
HETATM   56  N   LIG     1      -8.938   6.540  62.413  1.00  0.00    -0.360 N 
HETATM   57  C   LIG     1      -9.102   5.350  61.741  1.00  0.00     0.221 C 
HETATM   58  O   LIG     1      -8.305   4.422  61.851  1.00  0.00    -0.273 OA
HETATM   59  H   LIG     1      -9.723   7.173  62.480  1.00  0.00     0.162 HD
BRANCH  57  60
HETATM   60  C   LIG     1     -10.299   5.305  60.780  1.00  0.00     0.024 C 
HETATM   61  H   LIG     1     -11.184   5.148  61.412  1.00  0.00     0.054 H 
HETATM   62  C   LIG     1     -10.471   6.662  60.070  1.00  0.00    -0.051 C 
HETATM   63  C   LIG     1      -9.441   6.884  58.954  1.00  0.00    -0.040 C 
HETATM   64  H   LIG     1     -10.393   7.487  60.790  1.00  0.00     0.034 H 
HETATM   65  H   LIG     1     -11.481   6.725  59.648  1.00  0.00     0.034 H 
HETATM   66  C   LIG     1      -9.355   5.706  57.984  1.00  0.00     0.035 C 
HETATM   67  H   LIG     1      -8.453   7.049  59.399  1.00  0.00     0.036 H 
HETATM   68  H   LIG     1      -9.706   7.798  58.412  1.00  0.00     0.036 H 
HETATM   69  H   LIG     1      -8.546   5.877  57.266  1.00  0.00     0.082 H 
HETATM   70  C   LIG     1      -9.114   4.397  58.732  1.00  0.00    -0.040 C 
HETATM   71  C   LIG     1     -10.216   4.157  59.765  1.00  0.00    -0.051 C 
HETATM   72  H   LIG     1      -8.135   4.421  59.225  1.00  0.00     0.036 H 
HETATM   73  H   LIG     1      -9.106   3.557  58.027  1.00  0.00     0.036 H 
HETATM   74  H   LIG     1     -10.050   3.190  60.247  1.00  0.00     0.034 H 
HETATM   75  H   LIG     1     -11.183   4.065  59.252  1.00  0.00     0.034 H 
BRANCH  66  76
HETATM   76  O   LIG     1     -10.567   5.565  57.244  1.00  0.00    -0.396 OA
HETATM   77  H   LIG     1     -11.023   6.424  57.223  1.00  0.00     0.210 HD
ENDBRANCH  66  76
ENDBRANCH  57  60
ENDBRANCH  53  56
ENDBRANCH  50  53
ENDBRANCH  48  50
ENDBRANCH   1  41
TORSDOF 14
ENDMDL
MODEL 5
REMARK minimizedAffinity -5.32292891
REMARK minimizedRMSD -1
REMARK  14 active torsions:
REMARK  status: ('A' for Active; 'I' for Inactive)
REMARK    1  A    between atoms: N_1  and  S_2 
REMARK    2  A    between atoms: S_2  and  C_5 
REMARK    3  A    between atoms: C_8  and  C_9 
REMARK    4  A    between atoms: C_9  and  C_10 
REMARK    5  A    between atoms: C_14  and  N_15 
REMARK       I    between atoms: N_15  and  C_16 
REMARK    6  A    between atoms: C_16  and  C_18 
REMARK    7  A    between atoms: C_18  and  C_19 
REMARK    8  A    between atoms: C_18  and  C_21 
REMARK    9  A    between atoms: C_19  and  S_20 
REMARK   10  A    between atoms: C_26  and  C_27 
REMARK   11  A    between atoms: C_27  and  C_28 
REMARK   12  A    between atoms: C_28  and  N_29 
REMARK       I    between atoms: N_29  and  C_30 
REMARK   13  A    between atoms: C_30  and  C_32 
REMARK   14  A    between atoms: C_36  and  O_38 
ROOT
HETATM    1  C   LIG     1      -7.613  10.302  61.148  1.00  0.00     0.059 C 
HETATM    2  H   LIG     1      -7.979  10.540  60.137  1.00  0.00     0.063 H 
ENDROOT
BRANCH   1   3
HETATM    3  C   LIG     1      -8.859  10.319  62.051  1.00  0.00     0.231 C 
HETATM    4  N   LIG     1      -8.928  11.336  62.994  1.00  0.00    -0.327 N 
HETATM    5  H   LIG     1      -8.114  11.935  63.091  1.00  0.00     0.169 HD
HETATM    6  O   LIG     1      -9.756   9.509  61.814  1.00  0.00    -0.272 OA
BRANCH   4   7
HETATM    7  C   LIG     1     -10.051  11.690  63.796  1.00  0.00     0.035 A 
HETATM    8  C   LIG     1     -11.261  12.149  63.276  1.00  0.00    -0.057 A 
HETATM    9  C   LIG     1     -12.289  12.575  64.125  1.00  0.00    -0.080 A 
HETATM   10  H   LIG     1     -11.442  12.215  62.209  1.00  0.00     0.086 H 
HETATM   11  C   LIG     1     -12.109  12.588  65.507  1.00  0.00    -0.076 A 
HETATM   12  H   LIG     1     -13.219  12.943  63.695  1.00  0.00     0.083 H 
HETATM   13  C   LIG     1     -10.904  12.146  66.065  1.00  0.00    -0.052 A 
HETATM   14  H   LIG     1     -12.901  12.991  66.134  1.00  0.00     0.084 H 
HETATM   15  C   LIG     1      -9.901  11.655  65.195  1.00  0.00    -0.051 A 
HETATM   16  H   LIG     1      -8.971  11.291  65.627  1.00  0.00     0.087 H 
BRANCH  13  17
HETATM   17  C   LIG     1     -10.582  12.401  67.527  1.00  0.00    -0.017 C 
HETATM   18  H   LIG     1      -9.495  12.458  67.669  1.00  0.00     0.047 H 
HETATM   19  H   LIG     1     -10.941  13.416  67.752  1.00  0.00     0.047 H 
BRANCH  17  20
HETATM   20  C   LIG     1     -11.145  11.458  68.571  1.00  0.00    -0.054 A 
HETATM   21  C   LIG     1     -10.787  10.100  68.589  1.00  0.00    -0.075 A 
HETATM   22  C   LIG     1     -11.249   9.247  69.602  1.00  0.00    -0.060 A 
HETATM   23  H   LIG     1     -10.119   9.701  67.827  1.00  0.00     0.084 H 
HETATM   24  C   LIG     1     -12.096   9.761  70.580  1.00  0.00     0.074 A 
HETATM   25  H   LIG     1     -10.943   8.205  69.613  1.00  0.00     0.085 H 
HETATM   26  C   LIG     1     -12.456  11.105  70.591  1.00  0.00    -0.060 A 
HETATM   27  C   LIG     1     -11.977  11.950  69.593  1.00  0.00    -0.075 A 
HETATM   28  H   LIG     1     -13.100  11.500  71.374  1.00  0.00     0.085 H 
HETATM   29  H   LIG     1     -12.240  13.005  69.627  1.00  0.00     0.084 H 
BRANCH  24  30
HETATM   30  S   LIG     1     -12.714   8.716  71.878  1.00  0.00     0.239 S 
HETATM   31  O   LIG     1     -13.794   9.423  72.569  1.00  0.00    -0.206 OA
HETATM   32  O   LIG     1     -11.625   8.102  72.571  1.00  0.00    -0.206 OA
BRANCH  30  33
HETATM   33  N   LIG     1     -13.464   7.487  71.009  1.00  0.00    -0.225 NA
HETATM   34  H   LIG     1     -14.464   7.484  71.186  1.00  0.00     0.136 HD
HETATM   35  H   LIG     1     -12.997   6.597  71.208  1.00  0.00     0.136 HD
ENDBRANCH  30  33
ENDBRANCH  24  30
ENDBRANCH  17  20
ENDBRANCH  13  17
ENDBRANCH   4   7
ENDBRANCH   1   3
BRANCH   1  36
HETATM   36  C   LIG     1      -6.731  11.533  61.537  1.00  0.00    -0.011 C 
HETATM   37  H   LIG     1      -6.061  11.264  62.361  1.00  0.00     0.050 H 
HETATM   38  H   LIG     1      -7.371  12.341  61.913  1.00  0.00     0.050 H 
BRANCH  36  39
HETATM   39  S   LIG     1      -5.652  12.273  60.243  1.00  0.00    -0.181 SA
HETATM   40  H   LIG     1      -4.827  11.228  60.072  1.00  0.00     0.101 HD
ENDBRANCH  36  39
ENDBRANCH   1  36
BRANCH   1  41
HETATM   41  C   LIG     1      -6.925   8.942  60.999  1.00  0.00    -0.020 C 
HETATM   42  C   LIG     1      -5.805   8.655  61.795  1.00  0.00     0.009 C 
HETATM   43  N   LIG     1      -5.181   7.463  61.895  1.00  0.00    -0.273 NA
HETATM   44  H   LIG     1      -5.327   9.400  62.423  1.00  0.00     0.115 H 
HETATM   45  C   LIG     1      -5.651   6.482  61.126  1.00  0.00     0.002 C 
HETATM   46  C   LIG     1      -6.658   6.675  60.203  1.00  0.00    -0.059 C 
HETATM   47  H   LIG     1      -5.182   5.512  61.251  1.00  0.00     0.114 H 
HETATM   48  C   LIG     1      -7.318   7.916  60.101  1.00  0.00    -0.047 C 
HETATM   49  H   LIG     1      -6.908   5.832  59.572  1.00  0.00     0.086 H 
BRANCH  48  50
HETATM   50  C   LIG     1      -8.325   8.053  58.962  1.00  0.00    -0.026 C 
HETATM   51  H   LIG     1      -8.706   9.086  58.979  1.00  0.00     0.042 H 
HETATM   52  H   LIG     1      -9.202   7.421  59.136  1.00  0.00     0.042 H 
BRANCH  50  53
HETATM   53  C   LIG     1      -7.788   7.753  57.547  1.00  0.00    -0.001 C 
HETATM   54  H   LIG     1      -8.507   8.105  56.798  1.00  0.00     0.064 H 
HETATM   55  H   LIG     1      -7.673   6.673  57.424  1.00  0.00     0.064 H 
BRANCH  53  56
HETATM   56  N   LIG     1      -6.539   8.422  57.215  1.00  0.00    -0.360 N 
HETATM   57  C   LIG     1      -5.495   7.741  56.631  1.00  0.00     0.221 C 
HETATM   58  O   LIG     1      -5.557   6.541  56.378  1.00  0.00    -0.273 OA
HETATM   59  H   LIG     1      -6.537   9.432  57.188  1.00  0.00     0.162 HD
BRANCH  57  60
HETATM   60  C   LIG     1      -4.223   8.570  56.405  1.00  0.00     0.024 C 
HETATM   61  H   LIG     1      -4.341   9.037  55.418  1.00  0.00     0.054 H 
HETATM   62  C   LIG     1      -4.127   9.703  57.446  1.00  0.00    -0.051 C 
HETATM   63  C   LIG     1      -3.690   9.204  58.829  1.00  0.00    -0.040 C 
HETATM   64  H   LIG     1      -5.091  10.218  57.545  1.00  0.00     0.034 H 
HETATM   65  H   LIG     1      -3.416  10.460  57.093  1.00  0.00     0.034 H 
HETATM   66  C   LIG     1      -2.436   8.331  58.776  1.00  0.00     0.035 C 
HETATM   67  H   LIG     1      -4.504   8.627  59.282  1.00  0.00     0.036 H 
HETATM   68  H   LIG     1      -3.516  10.073  59.474  1.00  0.00     0.036 H 
HETATM   69  H   LIG     1      -2.223   7.930  59.772  1.00  0.00     0.082 H 
HETATM   70  C   LIG     1      -2.610   7.184  57.784  1.00  0.00    -0.040 C 
HETATM   71  C   LIG     1      -2.943   7.723  56.392  1.00  0.00    -0.051 C 
HETATM   72  H   LIG     1      -3.403   6.509  58.125  1.00  0.00     0.036 H 
HETATM   73  H   LIG     1      -1.685   6.598  57.720  1.00  0.00     0.036 H 
HETATM   74  H   LIG     1      -3.008   6.887  55.690  1.00  0.00     0.034 H 
HETATM   75  H   LIG     1      -2.110   8.342  56.032  1.00  0.00     0.034 H 
BRANCH  66  76
HETATM   76  O   LIG     1      -1.302   9.093  58.365  1.00  0.00    -0.396 OA
HETATM   77  H   LIG     1      -1.462  10.029  58.569  1.00  0.00     0.210 HD
ENDBRANCH  66  76
ENDBRANCH  57  60
ENDBRANCH  53  56
ENDBRANCH  50  53
ENDBRANCH  48  50
ENDBRANCH   1  41
TORSDOF 14
ENDMDL
MODEL 6
REMARK minimizedAffinity -5.31179762
REMARK minimizedRMSD -1
REMARK  14 active torsions:
REMARK  status: ('A' for Active; 'I' for Inactive)
REMARK    1  A    between atoms: N_1  and  S_2 
REMARK    2  A    between atoms: S_2  and  C_5 
REMARK    3  A    between atoms: C_8  and  C_9 
REMARK    4  A    between atoms: C_9  and  C_10 
REMARK    5  A    between atoms: C_14  and  N_15 
REMARK       I    between atoms: N_15  and  C_16 
REMARK    6  A    between atoms: C_16  and  C_18 
REMARK    7  A    between atoms: C_18  and  C_19 
REMARK    8  A    between atoms: C_18  and  C_21 
REMARK    9  A    between atoms: C_19  and  S_20 
REMARK   10  A    between atoms: C_26  and  C_27 
REMARK   11  A    between atoms: C_27  and  C_28 
REMARK   12  A    between atoms: C_28  and  N_29 
REMARK       I    between atoms: N_29  and  C_30 
REMARK   13  A    between atoms: C_30  and  C_32 
REMARK   14  A    between atoms: C_36  and  O_38 
ROOT
HETATM    1  C   LIG     1      -8.000   9.225  60.968  1.00  0.00     0.059 C 
HETATM    2  H   LIG     1      -8.093   9.711  59.984  1.00  0.00     0.063 H 
ENDROOT
BRANCH   1   3
HETATM    3  C   LIG     1      -9.233   9.682  61.769  1.00  0.00     0.231 C 
HETATM    4  N   LIG     1      -9.000  10.129  63.062  1.00  0.00    -0.327 N 
HETATM    5  H   LIG     1      -8.057  10.032  63.425  1.00  0.00     0.169 HD
HETATM    6  O   LIG     1     -10.317   9.725  61.187  1.00  0.00    -0.272 OA
BRANCH   4   7
HETATM    7  C   LIG     1      -9.925  10.787  63.924  1.00  0.00     0.035 A 
HETATM    8  C   LIG     1     -10.930  11.643  63.473  1.00  0.00    -0.057 A 
HETATM    9  C   LIG     1     -11.740  12.337  64.380  1.00  0.00    -0.080 A 
HETATM   10  H   LIG     1     -11.104  11.823  62.417  1.00  0.00     0.086 H 
HETATM   11  C   LIG     1     -11.533  12.216  65.753  1.00  0.00    -0.076 A 
HETATM   12  H   LIG     1     -12.508  13.010  64.003  1.00  0.00     0.083 H 
HETATM   13  C   LIG     1     -10.527  11.375  66.242  1.00  0.00    -0.052 A 
HETATM   14  H   LIG     1     -12.134  12.821  66.427  1.00  0.00     0.084 H 
HETATM   15  C   LIG     1      -9.763  10.630  65.313  1.00  0.00    -0.051 A 
HETATM   16  H   LIG     1      -8.994   9.959  65.691  1.00  0.00     0.087 H 
BRANCH  13  17
HETATM   17  C   LIG     1     -10.105  11.432  67.700  1.00  0.00    -0.017 C 
HETATM   18  H   LIG     1      -9.047  11.155  67.796  1.00  0.00     0.047 H 
HETATM   19  H   LIG     1     -10.138  12.492  67.992  1.00  0.00     0.047 H 
BRANCH  17  20
HETATM   20  C   LIG     1     -10.896  10.635  68.718  1.00  0.00    -0.054 A 
HETATM   21  C   LIG     1     -10.544   9.313  69.035  1.00  0.00    -0.075 A 
HETATM   22  C   LIG     1     -11.231   8.605  70.032  1.00  0.00    -0.060 A 
HETATM   23  H   LIG     1      -9.711   8.832  68.524  1.00  0.00     0.084 H 
HETATM   24  C   LIG     1     -12.290   9.225  70.690  1.00  0.00     0.074 A 
HETATM   25  H   LIG     1     -10.931   7.591  70.280  1.00  0.00     0.085 H 
HETATM   26  C   LIG     1     -12.649  10.539  70.403  1.00  0.00    -0.060 A 
HETATM   27  C   LIG     1     -11.950  11.241  69.424  1.00  0.00    -0.075 A 
HETATM   28  H   LIG     1     -13.464  11.021  70.940  1.00  0.00     0.085 H 
HETATM   29  H   LIG     1     -12.219  12.277  69.228  1.00  0.00     0.084 H 
BRANCH  24  30
HETATM   30  S   LIG     1     -13.194   8.365  71.954  1.00  0.00     0.239 S 
HETATM   31  O   LIG     1     -13.841   7.198  71.352  1.00  0.00    -0.206 OA
HETATM   32  O   LIG     1     -13.898   9.302  72.774  1.00  0.00    -0.206 OA
BRANCH  30  33
HETATM   33  N   LIG     1     -11.956   7.750  72.911  1.00  0.00    -0.225 NA
HETATM   34  H   LIG     1     -11.961   6.734  72.891  1.00  0.00     0.136 HD
HETATM   35  H   LIG     1     -12.021   8.154  73.851  1.00  0.00     0.136 HD
ENDBRANCH  30  33
ENDBRANCH  24  30
ENDBRANCH  17  20
ENDBRANCH  13  17
ENDBRANCH   4   7
ENDBRANCH   1   3
BRANCH   1  36
HETATM   36  C   LIG     1      -6.744   9.897  61.611  1.00  0.00    -0.011 C 
HETATM   37  H   LIG     1      -5.853   9.295  61.402  1.00  0.00     0.050 H 
HETATM   38  H   LIG     1      -6.853   9.915  62.702  1.00  0.00     0.050 H 
BRANCH  36  39
HETATM   39  S   LIG     1      -6.314  11.610  61.094  1.00  0.00    -0.181 SA
HETATM   40  H   LIG     1      -6.015  11.346  59.813  1.00  0.00     0.101 HD
ENDBRANCH  36  39
ENDBRANCH   1  36
BRANCH   1  41
HETATM   41  C   LIG     1      -7.935   7.727  60.654  1.00  0.00    -0.020 C 
HETATM   42  C   LIG     1      -8.144   6.806  61.692  1.00  0.00     0.009 C 
HETATM   43  N   LIG     1      -8.268   5.468  61.560  1.00  0.00    -0.273 NA
HETATM   44  H   LIG     1      -8.224   7.104  62.732  1.00  0.00     0.115 H 
HETATM   45  C   LIG     1      -8.133   4.981  60.328  1.00  0.00     0.002 C 
HETATM   46  C   LIG     1      -7.793   5.767  59.247  1.00  0.00    -0.059 C 
HETATM   47  H   LIG     1      -8.290   3.913  60.218  1.00  0.00     0.114 H 
HETATM   48  C   LIG     1      -7.669   7.165  59.380  1.00  0.00    -0.047 C 
HETATM   49  H   LIG     1      -7.629   5.257  58.307  1.00  0.00     0.086 H 
BRANCH  48  50
HETATM   50  C   LIG     1      -7.165   7.917  58.150  1.00  0.00    -0.026 C 
HETATM   51  H   LIG     1      -6.312   7.353  57.743  1.00  0.00     0.042 H 
HETATM   52  H   LIG     1      -6.756   8.894  58.429  1.00  0.00     0.042 H 
BRANCH  50  53
HETATM   53  C   LIG     1      -8.195   8.130  57.021  1.00  0.00    -0.001 C 
HETATM   54  H   LIG     1      -8.200   7.257  56.358  1.00  0.00     0.064 H 
HETATM   55  H   LIG     1      -7.908   9.003  56.429  1.00  0.00     0.064 H 
BRANCH  53  56
HETATM   56  N   LIG     1      -9.572   8.272  57.471  1.00  0.00    -0.360 N 
HETATM   57  C   LIG     1     -10.618   7.737  56.755  1.00  0.00     0.221 C 
HETATM   58  O   LIG     1     -10.447   7.133  55.699  1.00  0.00    -0.273 OA
HETATM   59  H   LIG     1      -9.728   8.546  58.431  1.00  0.00     0.162 HD
BRANCH  57  60
HETATM   60  C   LIG     1     -12.013   8.030  57.325  1.00  0.00     0.024 C 
HETATM   61  H   LIG     1     -12.320   8.990  56.889  1.00  0.00     0.054 H 
HETATM   62  C   LIG     1     -13.022   6.963  56.855  1.00  0.00    -0.051 C 
HETATM   63  C   LIG     1     -12.873   5.633  57.603  1.00  0.00    -0.040 C 
HETATM   64  H   LIG     1     -12.912   6.776  55.779  1.00  0.00     0.034 H 
HETATM   65  H   LIG     1     -14.041   7.344  56.992  1.00  0.00     0.034 H 
HETATM   66  C   LIG     1     -12.848   5.806  59.122  1.00  0.00     0.035 C 
HETATM   67  H   LIG     1     -11.946   5.140  57.289  1.00  0.00     0.036 H 
HETATM   68  H   LIG     1     -13.700   4.975  57.314  1.00  0.00     0.036 H 
HETATM   69  H   LIG     1     -12.650   4.841  59.601  1.00  0.00     0.082 H 
HETATM   70  C   LIG     1     -11.785   6.818  59.540  1.00  0.00    -0.040 C 
HETATM   71  C   LIG     1     -12.025   8.164  58.854  1.00  0.00    -0.051 C 
HETATM   72  H   LIG     1     -10.787   6.442  59.288  1.00  0.00     0.036 H 
HETATM   73  H   LIG     1     -11.815   6.969  60.626  1.00  0.00     0.036 H 
HETATM   74  H   LIG     1     -11.285   8.886  59.211  1.00  0.00     0.034 H 
HETATM   75  H   LIG     1     -12.998   8.565  59.168  1.00  0.00     0.034 H 
BRANCH  66  76
HETATM   76  O   LIG     1     -14.107   6.275  59.602  1.00  0.00    -0.396 OA
HETATM   77  H   LIG     1     -14.797   6.031  58.963  1.00  0.00     0.210 HD
ENDBRANCH  66  76
ENDBRANCH  57  60
ENDBRANCH  53  56
ENDBRANCH  50  53
ENDBRANCH  48  50
ENDBRANCH   1  41
TORSDOF 14
ENDMDL
MODEL 7
REMARK minimizedAffinity -5.10072947
REMARK minimizedRMSD -1
REMARK  14 active torsions:
REMARK  status: ('A' for Active; 'I' for Inactive)
REMARK    1  A    between atoms: N_1  and  S_2 
REMARK    2  A    between atoms: S_2  and  C_5 
REMARK    3  A    between atoms: C_8  and  C_9 
REMARK    4  A    between atoms: C_9  and  C_10 
REMARK    5  A    between atoms: C_14  and  N_15 
REMARK       I    between atoms: N_15  and  C_16 
REMARK    6  A    between atoms: C_16  and  C_18 
REMARK    7  A    between atoms: C_18  and  C_19 
REMARK    8  A    between atoms: C_18  and  C_21 
REMARK    9  A    between atoms: C_19  and  S_20 
REMARK   10  A    between atoms: C_26  and  C_27 
REMARK   11  A    between atoms: C_27  and  C_28 
REMARK   12  A    between atoms: C_28  and  N_29 
REMARK       I    between atoms: N_29  and  C_30 
REMARK   13  A    between atoms: C_30  and  C_32 
REMARK   14  A    between atoms: C_36  and  O_38 
ROOT
HETATM    1  C   LIG     1      -7.662   8.788  60.300  1.00  0.00     0.059 C 
HETATM    2  H   LIG     1      -7.880   9.387  59.402  1.00  0.00     0.063 H 
ENDROOT
BRANCH   1   3
HETATM    3  C   LIG     1      -8.706   9.221  61.344  1.00  0.00     0.231 C 
HETATM    4  N   LIG     1      -8.272   9.294  62.661  1.00  0.00    -0.327 N 
HETATM    5  H   LIG     1      -7.333   8.967  62.860  1.00  0.00     0.169 HD
HETATM    6  O   LIG     1      -9.815   9.573  60.942  1.00  0.00    -0.272 OA
BRANCH   4   7
HETATM    7  C   LIG     1      -8.973   9.857  63.767  1.00  0.00     0.035 A 
HETATM    8  C   LIG     1      -9.144   9.205  64.989  1.00  0.00    -0.057 A 
HETATM    9  C   LIG     1      -9.930   9.772  65.999  1.00  0.00    -0.080 A 
HETATM   10  H   LIG     1      -8.702   8.236  65.192  1.00  0.00     0.086 H 
HETATM   11  C   LIG     1     -10.591  10.981  65.789  1.00  0.00    -0.076 A 
HETATM   12  H   LIG     1     -10.060   9.238  66.937  1.00  0.00     0.083 H 
HETATM   13  C   LIG     1     -10.453  11.658  64.572  1.00  0.00    -0.052 A 
HETATM   14  H   LIG     1     -11.249  11.359  66.568  1.00  0.00     0.084 H 
HETATM   15  C   LIG     1      -9.601  11.104  63.588  1.00  0.00    -0.051 A 
HETATM   16  H   LIG     1      -9.475  11.639  62.648  1.00  0.00     0.087 H 
BRANCH  13  17
HETATM   17  C   LIG     1     -11.365  12.821  64.219  1.00  0.00    -0.017 C 
HETATM   18  H   LIG     1     -11.532  12.853  63.135  1.00  0.00     0.047 H 
HETATM   19  H   LIG     1     -12.351  12.583  64.642  1.00  0.00     0.047 H 
BRANCH  17  20
HETATM   20  C   LIG     1     -10.977  14.213  64.677  1.00  0.00    -0.054 A 
HETATM   21  C   LIG     1     -11.651  15.348  64.197  1.00  0.00    -0.075 A 
HETATM   22  C   LIG     1     -11.341  16.628  64.681  1.00  0.00    -0.060 A 
HETATM   23  H   LIG     1     -12.445  15.240  63.459  1.00  0.00     0.084 H 
HETATM   24  C   LIG     1     -10.332  16.762  65.630  1.00  0.00     0.074 A 
HETATM   25  H   LIG     1     -11.888  17.491  64.315  1.00  0.00     0.085 H 
HETATM   26  C   LIG     1      -9.659  15.652  66.132  1.00  0.00    -0.060 A 
HETATM   27  C   LIG     1      -9.985  14.382  65.660  1.00  0.00    -0.075 A 
HETATM   28  H   LIG     1      -8.887  15.767  66.891  1.00  0.00     0.085 H 
HETATM   29  H   LIG     1      -9.474  13.519  66.079  1.00  0.00     0.084 H 
BRANCH  24  30
HETATM   30  S   LIG     1      -9.899  18.363  66.266  1.00  0.00     0.239 S 
HETATM   31  O   LIG     1     -10.745  19.366  65.617  1.00  0.00    -0.206 OA
HETATM   32  O   LIG     1      -8.477  18.488  66.349  1.00  0.00    -0.206 OA
BRANCH  30  33
HETATM   33  N   LIG     1     -10.450  18.269  67.853  1.00  0.00    -0.225 NA
HETATM   34  H   LIG     1     -11.196  18.939  68.012  1.00  0.00     0.136 HD
HETATM   35  H   LIG     1      -9.655  18.361  68.494  1.00  0.00     0.136 HD
ENDBRANCH  30  33
ENDBRANCH  24  30
ENDBRANCH  17  20
ENDBRANCH  13  17
ENDBRANCH   4   7
ENDBRANCH   1   3
BRANCH   1  36
HETATM   36  C   LIG     1      -6.269   9.311  60.780  1.00  0.00    -0.011 C 
HETATM   37  H   LIG     1      -5.473   8.841  60.193  1.00  0.00     0.050 H 
HETATM   38  H   LIG     1      -6.101   9.008  61.822  1.00  0.00     0.050 H 
BRANCH  36  39
HETATM   39  S   LIG     1      -5.944  11.120  60.697  1.00  0.00    -0.181 SA
HETATM   40  H   LIG     1      -5.981  11.252  59.362  1.00  0.00     0.101 HD
ENDBRANCH  36  39
ENDBRANCH   1  36
BRANCH   1  41
HETATM   41  C   LIG     1      -7.762   7.334  59.829  1.00  0.00    -0.020 C 
HETATM   42  C   LIG     1      -7.902   6.318  60.786  1.00  0.00     0.009 C 
HETATM   43  N   LIG     1      -8.152   5.015  60.538  1.00  0.00    -0.273 NA
HETATM   44  H   LIG     1      -7.817   6.502  61.852  1.00  0.00     0.115 H 
HETATM   45  C   LIG     1      -8.226   4.661  59.255  1.00  0.00     0.002 C 
HETATM   46  C   LIG     1      -7.973   5.540  58.223  1.00  0.00    -0.059 C 
HETATM   47  H   LIG     1      -8.483   3.626  59.061  1.00  0.00     0.114 H 
HETATM   48  C   LIG     1      -7.719   6.903  58.478  1.00  0.00    -0.047 C 
HETATM   49  H   LIG     1      -7.980   5.129  57.222  1.00  0.00     0.086 H 
BRANCH  48  50
HETATM   50  C   LIG     1      -7.327   7.753  57.273  1.00  0.00    -0.026 C 
HETATM   51  H   LIG     1      -6.548   7.205  56.720  1.00  0.00     0.042 H 
HETATM   52  H   LIG     1      -6.849   8.686  57.590  1.00  0.00     0.042 H 
BRANCH  50  53
HETATM   53  C   LIG     1      -8.467   8.104  56.295  1.00  0.00    -0.001 C 
HETATM   54  H   LIG     1      -8.619   7.275  55.595  1.00  0.00     0.064 H 
HETATM   55  H   LIG     1      -8.190   8.990  55.717  1.00  0.00     0.064 H 
BRANCH  53  56
HETATM   56  N   LIG     1      -9.764   8.312  56.922  1.00  0.00    -0.360 N 
HETATM   57  C   LIG     1     -10.900   7.704  56.438  1.00  0.00     0.221 C 
HETATM   58  O   LIG     1     -10.880   6.974  55.451  1.00  0.00    -0.273 OA
HETATM   59  H   LIG     1      -9.780   8.702  57.854  1.00  0.00     0.162 HD
BRANCH  57  60
HETATM   60  C   LIG     1     -12.198   8.077  57.168  1.00  0.00     0.024 C 
HETATM   61  H   LIG     1     -12.592   8.960  56.646  1.00  0.00     0.054 H 
HETATM   62  C   LIG     1     -13.240   6.950  57.023  1.00  0.00    -0.051 C 
HETATM   63  C   LIG     1     -12.945   5.748  57.929  1.00  0.00    -0.040 C 
HETATM   64  H   LIG     1     -13.291   6.603  55.983  1.00  0.00     0.034 H 
HETATM   65  H   LIG     1     -14.236   7.345  57.258  1.00  0.00     0.034 H 
HETATM   66  C   LIG     1     -12.693   6.147  59.383  1.00  0.00     0.035 C 
HETATM   67  H   LIG     1     -12.065   5.214  57.551  1.00  0.00     0.036 H 
HETATM   68  H   LIG     1     -13.790   5.052  57.872  1.00  0.00     0.036 H 
HETATM   69  H   LIG     1     -12.400   5.267  59.963  1.00  0.00     0.082 H 
HETATM   70  C   LIG     1     -11.604   7.213  59.476  1.00  0.00    -0.040 C 
HETATM   71  C   LIG     1     -11.980   8.440  58.643  1.00  0.00    -0.051 C 
HETATM   72  H   LIG     1     -10.647   6.805  59.131  1.00  0.00     0.036 H 
HETATM   73  H   LIG     1     -11.471   7.526  60.518  1.00  0.00     0.036 H 
HETATM   74  H   LIG     1     -11.212   9.208  58.769  1.00  0.00     0.034 H 
HETATM   75  H   LIG     1     -12.903   8.882  59.041  1.00  0.00     0.034 H 
BRANCH  66  76
HETATM   76  O   LIG     1     -13.875   6.682  59.977  1.00  0.00    -0.396 OA
HETATM   77  H   LIG     1     -14.649   6.342  59.496  1.00  0.00     0.210 HD
ENDBRANCH  66  76
ENDBRANCH  57  60
ENDBRANCH  53  56
ENDBRANCH  50  53
ENDBRANCH  48  50
ENDBRANCH   1  41
TORSDOF 14
ENDMDL
MODEL 8
REMARK minimizedAffinity -4.91309214
REMARK minimizedRMSD -1
REMARK  14 active torsions:
REMARK  status: ('A' for Active; 'I' for Inactive)
REMARK    1  A    between atoms: N_1  and  S_2 
REMARK    2  A    between atoms: S_2  and  C_5 
REMARK    3  A    between atoms: C_8  and  C_9 
REMARK    4  A    between atoms: C_9  and  C_10 
REMARK    5  A    between atoms: C_14  and  N_15 
REMARK       I    between atoms: N_15  and  C_16 
REMARK    6  A    between atoms: C_16  and  C_18 
REMARK    7  A    between atoms: C_18  and  C_19 
REMARK    8  A    between atoms: C_18  and  C_21 
REMARK    9  A    between atoms: C_19  and  S_20 
REMARK   10  A    between atoms: C_26  and  C_27 
REMARK   11  A    between atoms: C_27  and  C_28 
REMARK   12  A    between atoms: C_28  and  N_29 
REMARK       I    between atoms: N_29  and  C_30 
REMARK   13  A    between atoms: C_30  and  C_32 
REMARK   14  A    between atoms: C_36  and  O_38 
ROOT
HETATM    1  C   LIG     1      -7.493  10.194  61.324  1.00  0.00     0.059 C 
HETATM    2  H   LIG     1      -7.773  10.382  60.276  1.00  0.00     0.063 H 
ENDROOT
BRANCH   1   3
HETATM    3  C   LIG     1      -8.811  10.258  62.117  1.00  0.00     0.231 C 
HETATM    4  N   LIG     1      -8.892  11.227  63.107  1.00  0.00    -0.327 N 
HETATM    5  H   LIG     1      -8.051  11.759  63.307  1.00  0.00     0.169 HD
HETATM    6  O   LIG     1      -9.737   9.529  61.759  1.00  0.00    -0.272 OA
BRANCH   4   7
HETATM    7  C   LIG     1     -10.055  11.622  63.830  1.00  0.00     0.035 A 
HETATM    8  C   LIG     1     -11.249  12.014  63.224  1.00  0.00    -0.057 A 
HETATM    9  C   LIG     1     -12.320  12.487  63.992  1.00  0.00    -0.080 A 
HETATM   10  H   LIG     1     -11.384  11.991  62.148  1.00  0.00     0.086 H 
HETATM   11  C   LIG     1     -12.200  12.614  65.375  1.00  0.00    -0.076 A 
HETATM   12  H   LIG     1     -13.236  12.800  63.495  1.00  0.00     0.083 H 
HETATM   13  C   LIG     1     -11.014  12.242  66.017  1.00  0.00    -0.052 A 
HETATM   14  H   LIG     1     -13.026  13.050  65.933  1.00  0.00     0.084 H 
HETATM   15  C   LIG     1      -9.966  11.703  65.233  1.00  0.00    -0.051 A 
HETATM   16  H   LIG     1      -9.050  11.393  65.732  1.00  0.00     0.087 H 
BRANCH  13  17
HETATM   17  C   LIG     1     -10.760  12.620  67.466  1.00  0.00    -0.017 C 
HETATM   18  H   LIG     1      -9.704  12.883  67.607  1.00  0.00     0.047 H 
HETATM   19  H   LIG     1     -11.302  13.561  67.642  1.00  0.00     0.047 H 
BRANCH  17  20
HETATM   20  C   LIG     1     -11.151  11.639  68.552  1.00  0.00    -0.054 A 
HETATM   21  C   LIG     1     -11.927  12.044  69.651  1.00  0.00    -0.075 A 
HETATM   22  C   LIG     1     -12.351  11.116  70.614  1.00  0.00    -0.060 A 
HETATM   23  H   LIG     1     -12.231  13.085  69.750  1.00  0.00     0.084 H 
HETATM   24  C   LIG     1     -11.968   9.785  70.480  1.00  0.00     0.074 A 
HETATM   25  H   LIG     1     -12.969  11.444  71.445  1.00  0.00     0.085 H 
HETATM   26  C   LIG     1     -11.211   9.356  69.394  1.00  0.00    -0.060 A 
HETATM   27  C   LIG     1     -10.810  10.280  68.432  1.00  0.00    -0.075 A 
HETATM   28  H   LIG     1     -10.937   8.308  69.289  1.00  0.00     0.085 H 
HETATM   29  H   LIG     1     -10.243   9.929  67.573  1.00  0.00     0.084 H 
BRANCH  24  30
HETATM   30  S   LIG     1     -12.475   8.576  71.680  1.00  0.00     0.239 S 
HETATM   31  O   LIG     1     -12.801   7.333  70.979  1.00  0.00    -0.206 OA
HETATM   32  O   LIG     1     -13.352   9.176  72.637  1.00  0.00    -0.206 OA
BRANCH  30  33
HETATM   33  N   LIG     1     -11.036   8.270  72.495  1.00  0.00    -0.225 NA
HETATM   34  H   LIG     1     -10.746   7.307  72.357  1.00  0.00     0.136 HD
HETATM   35  H   LIG     1     -11.138   8.544  73.478  1.00  0.00     0.136 HD
ENDBRANCH  30  33
ENDBRANCH  24  30
ENDBRANCH  17  20
ENDBRANCH  13  17
ENDBRANCH   4   7
ENDBRANCH   1   3
BRANCH   1  36
HETATM   36  C   LIG     1      -6.641  11.442  61.723  1.00  0.00    -0.011 C 
HETATM   37  H   LIG     1      -5.888  11.156  62.465  1.00  0.00     0.050 H 
HETATM   38  H   LIG     1      -7.284  12.187  62.210  1.00  0.00     0.050 H 
BRANCH  36  39
HETATM   39  S   LIG     1      -5.719  12.325  60.398  1.00  0.00    -0.181 SA
HETATM   40  H   LIG     1      -4.862  11.341  60.083  1.00  0.00     0.101 HD
ENDBRANCH  36  39
ENDBRANCH   1  36
BRANCH   1  41
HETATM   41  C   LIG     1      -6.802   8.828  61.301  1.00  0.00    -0.020 C 
HETATM   42  C   LIG     1      -6.370   8.264  62.512  1.00  0.00     0.009 C 
HETATM   43  N   LIG     1      -5.885   7.016  62.684  1.00  0.00    -0.273 NA
HETATM   44  H   LIG     1      -6.391   8.808  63.451  1.00  0.00     0.115 H 
HETATM   45  C   LIG     1      -5.765   6.272  61.585  1.00  0.00     0.002 C 
HETATM   46  C   LIG     1      -6.027   6.758  60.322  1.00  0.00    -0.059 C 
HETATM   47  H   LIG     1      -5.428   5.252  61.736  1.00  0.00     0.114 H 
HETATM   48  C   LIG     1      -6.541   8.058  60.139  1.00  0.00    -0.047 C 
HETATM   49  H   LIG     1      -5.819   6.095  59.493  1.00  0.00     0.086 H 
BRANCH  48  50
HETATM   50  C   LIG     1      -6.673   8.534  58.694  1.00  0.00    -0.026 C 
HETATM   51  H   LIG     1      -7.351   9.402  58.692  1.00  0.00     0.042 H 
HETATM   52  H   LIG     1      -7.171   7.779  58.076  1.00  0.00     0.042 H 
BRANCH  50  53
HETATM   53  C   LIG     1      -5.358   8.938  57.995  1.00  0.00    -0.001 C 
HETATM   54  H   LIG     1      -5.562   9.715  57.250  1.00  0.00     0.064 H 
HETATM   55  H   LIG     1      -4.943   8.071  57.474  1.00  0.00     0.064 H 
BRANCH  53  56
HETATM   56  N   LIG     1      -4.351   9.511  58.876  1.00  0.00    -0.360 N 
HETATM   57  C   LIG     1      -3.009   9.415  58.587  1.00  0.00     0.221 C 
HETATM   58  O   LIG     1      -2.595   8.832  57.589  1.00  0.00    -0.273 OA
HETATM   59  H   LIG     1      -4.655  10.188  59.561  1.00  0.00     0.162 HD
BRANCH  57  60
HETATM   60  C   LIG     1      -2.072  10.012  59.647  1.00  0.00     0.024 C 
HETATM   61  H   LIG     1      -1.981  11.078  59.401  1.00  0.00     0.054 H 
HETATM   62  C   LIG     1      -2.709   9.911  61.047  1.00  0.00    -0.051 C 
HETATM   63  C   LIG     1      -2.646   8.492  61.628  1.00  0.00    -0.040 C 
HETATM   64  H   LIG     1      -3.757  10.233  61.017  1.00  0.00     0.034 H 
HETATM   65  H   LIG     1      -2.200  10.604  61.727  1.00  0.00     0.034 H 
HETATM   66  C   LIG     1      -1.244   7.886  61.562  1.00  0.00     0.035 C 
HETATM   67  H   LIG     1      -3.338   7.843  61.079  1.00  0.00     0.036 H 
HETATM   68  H   LIG     1      -2.992   8.525  62.666  1.00  0.00     0.036 H 
HETATM   69  H   LIG     1      -1.275   6.846  61.904  1.00  0.00     0.082 H 
HETATM   70  C   LIG     1      -0.688   7.947  60.142  1.00  0.00    -0.040 C 
HETATM   71  C   LIG     1      -0.669   9.389  59.633  1.00  0.00    -0.051 C 
HETATM   72  H   LIG     1      -1.292   7.321  59.474  1.00  0.00     0.036 H 
HETATM   73  H   LIG     1       0.336   7.555  60.121  1.00  0.00     0.036 H 
HETATM   74  H   LIG     1      -0.217   9.412  58.637  1.00  0.00     0.034 H 
HETATM   75  H   LIG     1      -0.006   9.991  60.268  1.00  0.00     0.034 H 
BRANCH  66  76
HETATM   76  O   LIG     1      -0.342   8.594  62.412  1.00  0.00    -0.396 OA
HETATM   77  H   LIG     1      -0.852   9.037  63.110  1.00  0.00     0.210 HD
ENDBRANCH  66  76
ENDBRANCH  57  60
ENDBRANCH  53  56
ENDBRANCH  50  53
ENDBRANCH  48  50
ENDBRANCH   1  41
TORSDOF 14
ENDMDL
MODEL 9
REMARK minimizedAffinity -4.7832346
REMARK minimizedRMSD -1
REMARK  14 active torsions:
REMARK  status: ('A' for Active; 'I' for Inactive)
REMARK    1  A    between atoms: N_1  and  S_2 
REMARK    2  A    between atoms: S_2  and  C_5 
REMARK    3  A    between atoms: C_8  and  C_9 
REMARK    4  A    between atoms: C_9  and  C_10 
REMARK    5  A    between atoms: C_14  and  N_15 
REMARK       I    between atoms: N_15  and  C_16 
REMARK    6  A    between atoms: C_16  and  C_18 
REMARK    7  A    between atoms: C_18  and  C_19 
REMARK    8  A    between atoms: C_18  and  C_21 
REMARK    9  A    between atoms: C_19  and  S_20 
REMARK   10  A    between atoms: C_26  and  C_27 
REMARK   11  A    between atoms: C_27  and  C_28 
REMARK   12  A    between atoms: C_28  and  N_29 
REMARK       I    between atoms: N_29  and  C_30 
REMARK   13  A    between atoms: C_30  and  C_32 
REMARK   14  A    between atoms: C_36  and  O_38 
ROOT
HETATM    1  C   LIG     1      -7.376  10.299  61.168  1.00  0.00     0.059 C 
HETATM    2  H   LIG     1      -7.854  10.270  60.177  1.00  0.00     0.063 H 
ENDROOT
BRANCH   1   3
HETATM    3  C   LIG     1      -8.531  10.217  62.183  1.00  0.00     0.231 C 
HETATM    4  N   LIG     1      -8.699  11.312  63.019  1.00  0.00    -0.327 N 
HETATM    5  H   LIG     1      -7.997  12.043  62.975  1.00  0.00     0.169 HD
HETATM    6  O   LIG     1      -9.289   9.249  62.119  1.00  0.00    -0.272 OA
BRANCH   4   7
HETATM    7  C   LIG     1      -9.799  11.569  63.888  1.00  0.00     0.035 A 
HETATM    8  C   LIG     1     -11.041  12.029  63.451  1.00  0.00    -0.057 A 
HETATM    9  C   LIG     1     -12.047  12.358  64.368  1.00  0.00    -0.080 A 
HETATM   10  H   LIG     1     -11.266  12.172  62.399  1.00  0.00     0.086 H 
HETATM   11  C   LIG     1     -11.813  12.270  65.739  1.00  0.00    -0.076 A 
HETATM   12  H   LIG     1     -13.002  12.729  64.003  1.00  0.00     0.083 H 
HETATM   13  C   LIG     1     -10.575  11.823  66.216  1.00  0.00    -0.052 A 
HETATM   14  H   LIG     1     -12.591  12.599  66.424  1.00  0.00     0.084 H 
HETATM   15  C   LIG     1      -9.594  11.431  65.274  1.00  0.00    -0.051 A 
HETATM   16  H   LIG     1      -8.638  11.063  65.642  1.00  0.00     0.087 H 
BRANCH  13  17
HETATM   17  C   LIG     1     -10.203  11.975  67.681  1.00  0.00    -0.017 C 
HETATM   18  H   LIG     1      -9.120  11.853  67.808  1.00  0.00     0.047 H 
HETATM   19  H   LIG     1     -10.394  13.026  67.943  1.00  0.00     0.047 H 
BRANCH  17  20
HETATM   20  C   LIG     1     -10.900  11.099  68.702  1.00  0.00    -0.054 A 
HETATM   21  C   LIG     1     -10.488   9.774  68.923  1.00  0.00    -0.075 A 
HETATM   22  C   LIG     1     -11.085   8.991  69.922  1.00  0.00    -0.060 A 
HETATM   23  H   LIG     1      -9.676   9.350  68.334  1.00  0.00     0.084 H 
HETATM   24  C   LIG     1     -12.116   9.539  70.679  1.00  0.00     0.074 A 
HETATM   25  H   LIG     1     -10.737   7.977  70.094  1.00  0.00     0.085 H 
HETATM   26  C   LIG     1     -12.535  10.853  70.488  1.00  0.00    -0.060 A 
HETATM   27  C   LIG     1     -11.924  11.629  69.506  1.00  0.00    -0.075 A 
HETATM   28  H   LIG     1     -13.327  11.277  71.102  1.00  0.00     0.085 H 
HETATM   29  H   LIG     1     -12.238  12.664  69.385  1.00  0.00     0.084 H 
BRANCH  24  30
HETATM   30  S   LIG     1     -12.908   8.583  71.950  1.00  0.00     0.239 S 
HETATM   31  O   LIG     1     -13.836   9.452  72.677  1.00  0.00    -0.206 OA
HETATM   32  O   LIG     1     -11.946   7.756  72.610  1.00  0.00    -0.206 OA
BRANCH  30  33
HETATM   33  N   LIG     1     -13.877   7.543  71.051  1.00  0.00    -0.225 NA
HETATM   34  H   LIG     1     -14.859   7.717  71.241  1.00  0.00     0.136 HD
HETATM   35  H   LIG     1     -13.580   6.575  71.216  1.00  0.00     0.136 HD
ENDBRANCH  30  33
ENDBRANCH  24  30
ENDBRANCH  17  20
ENDBRANCH  13  17
ENDBRANCH   4   7
ENDBRANCH   1   3
BRANCH   1  36
HETATM   36  C   LIG     1      -6.768  11.735  61.260  1.00  0.00    -0.011 C 
HETATM   37  H   LIG     1      -6.369  11.906  62.266  1.00  0.00     0.050 H 
HETATM   38  H   LIG     1      -7.559  12.481  61.113  1.00  0.00     0.050 H 
BRANCH  36  39
HETATM   39  S   LIG     1      -5.404  12.177  60.107  1.00  0.00    -0.181 SA
HETATM   40  H   LIG     1      -4.481  11.322  60.576  1.00  0.00     0.101 HD
ENDBRANCH  36  39
ENDBRANCH   1  36
BRANCH   1  41
HETATM   41  C   LIG     1      -6.413   9.107  61.168  1.00  0.00    -0.020 C 
HETATM   42  C   LIG     1      -6.576   8.102  60.201  1.00  0.00     0.009 C 
HETATM   43  N   LIG     1      -5.733   7.073  59.970  1.00  0.00    -0.273 NA
HETATM   44  H   LIG     1      -7.429   8.067  59.532  1.00  0.00     0.115 H 
HETATM   45  C   LIG     1      -4.672   6.986  60.771  1.00  0.00     0.002 C 
HETATM   46  C   LIG     1      -4.473   7.831  61.841  1.00  0.00    -0.059 C 
HETATM   47  H   LIG     1      -3.970   6.191  60.545  1.00  0.00     0.114 H 
HETATM   48  C   LIG     1      -5.347   8.912  62.082  1.00  0.00    -0.047 C 
HETATM   49  H   LIG     1      -3.623   7.622  62.476  1.00  0.00     0.086 H 
BRANCH  48  50
HETATM   50  C   LIG     1      -5.104   9.703  63.365  1.00  0.00    -0.026 C 
HETATM   51  H   LIG     1      -5.474  10.726  63.199  1.00  0.00     0.042 H 
HETATM   52  H   LIG     1      -4.032   9.814  63.560  1.00  0.00     0.042 H 
BRANCH  50  53
HETATM   53  C   LIG     1      -5.769   9.142  64.640  1.00  0.00    -0.001 C 
HETATM   54  H   LIG     1      -6.205   9.964  65.219  1.00  0.00     0.064 H 
HETATM   55  H   LIG     1      -5.012   8.655  65.260  1.00  0.00     0.064 H 
BRANCH  53  56
HETATM   56  N   LIG     1      -6.871   8.223  64.397  1.00  0.00    -0.360 N 
HETATM   57  C   LIG     1      -7.116   7.161  65.237  1.00  0.00     0.221 C 
HETATM   58  O   LIG     1      -6.413   6.925  66.215  1.00  0.00    -0.273 OA
HETATM   59  H   LIG     1      -7.597   8.516  63.758  1.00  0.00     0.162 HD
BRANCH  57  60
HETATM   60  C   LIG     1      -8.273   6.246  64.808  1.00  0.00     0.024 C 
HETATM   61  H   LIG     1      -9.194   6.792  65.056  1.00  0.00     0.054 H 
HETATM   62  C   LIG     1      -8.255   6.035  63.281  1.00  0.00    -0.051 C 
HETATM   63  C   LIG     1      -7.165   5.054  62.830  1.00  0.00    -0.040 C 
HETATM   64  H   LIG     1      -8.107   6.990  62.762  1.00  0.00     0.034 H 
HETATM   65  H   LIG     1      -9.234   5.663  62.956  1.00  0.00     0.034 H 
HETATM   66  C   LIG     1      -7.183   3.743  63.617  1.00  0.00     0.035 C 
HETATM   67  H   LIG     1      -6.181   5.523  62.948  1.00  0.00     0.036 H 
HETATM   68  H   LIG     1      -7.298   4.853  61.761  1.00  0.00     0.036 H 
HETATM   69  H   LIG     1      -6.333   3.121  63.318  1.00  0.00     0.082 H 
HETATM   70  C   LIG     1      -7.128   4.006  65.119  1.00  0.00    -0.040 C 
HETATM   71  C   LIG     1      -8.289   4.903  65.551  1.00  0.00    -0.051 C 
HETATM   72  H   LIG     1      -6.173   4.475  65.384  1.00  0.00     0.036 H 
HETATM   73  H   LIG     1      -7.194   3.060  65.670  1.00  0.00     0.036 H 
HETATM   74  H   LIG     1      -8.258   5.032  66.637  1.00  0.00     0.034 H 
HETATM   75  H   LIG     1      -9.240   4.394  65.345  1.00  0.00     0.034 H 
BRANCH  66  76
HETATM   76  O   LIG     1      -8.375   3.005  63.349  1.00  0.00    -0.396 OA
HETATM   77  H   LIG     1      -8.724   3.276  62.483  1.00  0.00     0.210 HD
ENDBRANCH  66  76
ENDBRANCH  57  60
ENDBRANCH  53  56
ENDBRANCH  50  53
ENDBRANCH  48  50
ENDBRANCH   1  41
TORSDOF 14
ENDMDL
