MODEL 1
REMARK minimizedAffinity -7.43524075
REMARK minimizedRMSD -1
REMARK  13 active torsions:
REMARK  status: ('A' for Active; 'I' for Inactive)
REMARK    1  A    between atoms: N_1  and  S_2 
REMARK    2  A    between atoms: S_2  and  C_5 
REMARK    3  A    between atoms: C_8  and  C_9 
REMARK    4  A    between atoms: C_9  and  C_10 
REMARK    5  A    between atoms: C_14  and  N_15 
REMARK       I    between atoms: N_15  and  C_16 
REMARK       I    between atoms: C_16  and  N_18 
REMARK    6  A    between atoms: N_18  and  C_19 
REMARK    7  A    between atoms: C_20  and  C_25 
REMARK    8  A    between atoms: C_25  and  C_27 
REMARK    9  A    between atoms: C_25  and  C_38 
REMARK   10  A    between atoms: C_27  and  N_28 
REMARK       I    between atoms: N_28  and  C_29 
REMARK   11  A    between atoms: C_29  and  C_31 
REMARK   12  A    between atoms: C_34  and  O_35 
REMARK   13  A    between atoms: C_38  and  C_39 
ROOT
HETATM    1  C   LIG     1     -11.585  14.003  66.966  1.00  0.00     0.060 A 
HETATM    2  C   LIG     1     -10.324  14.166  66.367  1.00  0.00    -0.023 A 
HETATM    3  C   LIG     1     -10.218  13.789  65.018  1.00  0.00    -0.057 A 
HETATM    4  C   LIG     1     -11.322  13.317  64.330  1.00  0.00     0.002 A 
HETATM    5  N   LIG     1     -12.516  13.103  64.905  1.00  0.00    -0.271 NA
HETATM    6  C   LIG     1     -12.622  13.447  66.204  1.00  0.00     0.028 A 
HETATM    7  H   LIG     1      -9.291  13.900  64.467  1.00  0.00     0.086 H 
HETATM    8  H   LIG     1     -11.265  13.110  63.266  1.00  0.00     0.114 H 
HETATM    9  H   LIG     1     -13.600  13.251  66.638  1.00  0.00     0.118 H 
ENDROOT
BRANCH   2  10
HETATM   10  C   LIG     1      -9.086  14.719  67.088  1.00  0.00    -0.011 C 
HETATM   11  H   LIG     1      -9.400  14.993  68.106  1.00  0.00     0.050 H 
BRANCH  10  12
HETATM   12  C   LIG     1      -7.931  13.683  67.249  1.00  0.00     0.002 C 
HETATM   13  H   LIG     1      -7.572  13.693  68.286  1.00  0.00     0.065 H 
HETATM   14  H   LIG     1      -7.081  13.971  66.617  1.00  0.00     0.065 H 
BRANCH  12  15
HETATM   15  N   LIG     1      -8.294  12.297  66.945  1.00  0.00    -0.360 N 
HETATM   16  C   LIG     1      -8.131  11.251  67.843  1.00  0.00     0.221 C 
HETATM   17  O   LIG     1      -7.560  11.370  68.922  1.00  0.00    -0.273 OA
HETATM   18  H   LIG     1      -8.994  12.159  66.230  1.00  0.00     0.162 HD
BRANCH  16  19
HETATM   19  C   LIG     1      -8.797   9.939  67.382  1.00  0.00     0.024 C 
HETATM   20  C   LIG     1      -9.851  10.131  66.273  1.00  0.00    -0.051 C 
HETATM   21  C   LIG     1      -9.329  10.066  64.832  1.00  0.00    -0.040 C 
HETATM   22  H   LIG     1     -10.393  11.075  66.396  1.00  0.00     0.034 H 
HETATM   23  H   LIG     1     -10.598   9.335  66.386  1.00  0.00     0.034 H 
HETATM   24  C   LIG     1      -8.373   8.901  64.606  1.00  0.00     0.035 C 
HETATM   25  H   LIG     1      -8.839  11.011  64.570  1.00  0.00     0.036 H 
HETATM   26  H   LIG     1     -10.196   9.957  64.166  1.00  0.00     0.036 H 
HETATM   27  C   LIG     1      -7.238   8.934  65.624  1.00  0.00    -0.040 C 
HETATM   28  H   LIG     1      -7.970   8.940  63.588  1.00  0.00     0.082 H 
HETATM   29  C   LIG     1      -7.777   8.837  67.050  1.00  0.00    -0.051 C 
HETATM   30  H   LIG     1      -6.655   9.854  65.505  1.00  0.00     0.036 H 
HETATM   31  H   LIG     1      -6.559   8.091  65.448  1.00  0.00     0.036 H 
HETATM   32  H   LIG     1      -6.940   8.847  67.758  1.00  0.00     0.034 H 
HETATM   33  H   LIG     1      -8.264   7.859  67.178  1.00  0.00     0.034 H 
HETATM   34  H   LIG     1      -9.336   9.589  68.275  1.00  0.00     0.054 H 
BRANCH  24  35
HETATM   35  O   LIG     1      -9.114   7.688  64.730  1.00  0.00    -0.396 OA
HETATM   36  H   LIG     1      -8.484   6.964  64.884  1.00  0.00     0.210 HD
ENDBRANCH  24  35
ENDBRANCH  16  19
ENDBRANCH  12  15
ENDBRANCH  10  12
BRANCH  10  37
HETATM   37  C   LIG     1      -8.565  16.042  66.451  1.00  0.00    -0.053 C 
HETATM   38  H   LIG     1      -8.554  15.975  65.355  1.00  0.00     0.034 H 
HETATM   39  H   LIG     1      -7.522  16.215  66.741  1.00  0.00     0.034 H 
BRANCH  37  40
HETATM   40  C   LIG     1      -9.386  17.227  66.902  1.00  0.00    -0.053 A 
HETATM   41  C   LIG     1      -9.115  18.605  66.366  1.00  0.00    -0.061 A 
HETATM   42  C   LIG     1     -10.352  17.870  65.937  1.00  0.00    -0.061 A 
HETATM   43  H   LIG     1      -8.300  18.719  65.662  1.00  0.00     0.033 H 
HETATM   44  H   LIG     1      -9.248  19.448  67.035  1.00  0.00     0.033 H 
HETATM   45  H   LIG     1     -10.392  17.514  64.914  1.00  0.00     0.033 H 
HETATM   46  H   LIG     1     -11.317  18.170  66.331  1.00  0.00     0.033 H 
HETATM   47  H   LIG     1      -9.662  17.172  67.950  1.00  0.00     0.040 H 
ENDBRANCH  37  40
ENDBRANCH  10  37
ENDBRANCH   2  10
BRANCH   1  48
HETATM   48  N   LIG     1     -11.816  14.342  68.311  1.00  0.00    -0.307 N 
HETATM   49  C   LIG     1     -12.064  13.442  69.327  1.00  0.00     0.325 C 
HETATM   50  N   LIG     1     -11.788  12.129  69.001  1.00  0.00    -0.309 N 
HETATM   51  O   LIG     1     -12.439  13.847  70.423  1.00  0.00    -0.247 OA
HETATM   52  H   LIG     1     -11.135  12.000  68.243  1.00  0.00     0.170 HD
HETATM   53  H   LIG     1     -12.237  15.251  68.495  1.00  0.00     0.170 HD
BRANCH  50  54
HETATM   54  C   LIG     1     -11.919  11.069  69.906  1.00  0.00     0.036 A 
HETATM   55  C   LIG     1     -12.948  11.065  70.843  1.00  0.00    -0.057 A 
HETATM   56  C   LIG     1     -13.063  10.004  71.735  1.00  0.00    -0.080 A 
HETATM   57  H   LIG     1     -13.679  11.869  70.864  1.00  0.00     0.086 H 
HETATM   58  C   LIG     1     -12.140   8.958  71.698  1.00  0.00    -0.076 A 
HETATM   59  H   LIG     1     -13.867   9.997  72.464  1.00  0.00     0.083 H 
HETATM   60  C   LIG     1     -11.121   8.929  70.735  1.00  0.00    -0.052 A 
HETATM   61  H   LIG     1     -12.222   8.159  72.431  1.00  0.00     0.084 H 
HETATM   62  C   LIG     1     -11.031   9.990  69.820  1.00  0.00    -0.051 A 
HETATM   63  H   LIG     1     -10.229  10.005  69.086  1.00  0.00     0.087 H 
BRANCH  60  64
HETATM   64  C   LIG     1     -10.136   7.782  70.715  1.00  0.00    -0.017 C 
HETATM   65  H   LIG     1      -9.127   8.169  70.915  1.00  0.00     0.047 H 
HETATM   66  H   LIG     1     -10.340   7.104  71.555  1.00  0.00     0.047 H 
BRANCH  64  67
HETATM   67  C   LIG     1     -10.118   6.991  69.426  1.00  0.00    -0.054 A 
HETATM   68  C   LIG     1      -9.074   6.090  69.166  1.00  0.00    -0.075 A 
HETATM   69  C   LIG     1      -9.052   5.343  67.985  1.00  0.00    -0.060 A 
HETATM   70  H   LIG     1      -8.272   5.961  69.890  1.00  0.00     0.084 H 
HETATM   71  C   LIG     1     -10.083   5.494  67.058  1.00  0.00     0.074 A 
HETATM   72  H   LIG     1      -8.240   4.640  67.813  1.00  0.00     0.085 H 
HETATM   73  C   LIG     1     -11.127   6.392  67.294  1.00  0.00    -0.060 A 
HETATM   74  C   LIG     1     -11.143   7.137  68.475  1.00  0.00    -0.075 A 
HETATM   75  H   LIG     1     -11.931   6.504  66.571  1.00  0.00     0.085 H 
HETATM   76  H   LIG     1     -11.965   7.827  68.654  1.00  0.00     0.084 H 
BRANCH  71  77
HETATM   77  S   LIG     1     -10.112   4.492  65.602  1.00  0.00     0.239 S 
HETATM   78  O   LIG     1      -8.928   4.813  64.804  1.00  0.00    -0.206 OA
HETATM   79  O   LIG     1     -11.426   4.467  65.050  1.00  0.00    -0.206 OA
BRANCH  77  80
HETATM   80  N   LIG     1      -9.837   2.944  66.200  1.00  0.00    -0.225 NA
HETATM   81  H   LIG     1      -8.973   2.574  65.808  1.00  0.00     0.136 HD
HETATM   82  H   LIG     1     -10.655   2.364  65.999  1.00  0.00     0.136 HD
ENDBRANCH  77  80
ENDBRANCH  71  77
ENDBRANCH  64  67
ENDBRANCH  60  64
ENDBRANCH  50  54
ENDBRANCH   1  48
TORSDOF 13
ENDMDL
MODEL 2
REMARK minimizedAffinity -7.39592218
REMARK minimizedRMSD -1
REMARK  13 active torsions:
REMARK  status: ('A' for Active; 'I' for Inactive)
REMARK    1  A    between atoms: N_1  and  S_2 
REMARK    2  A    between atoms: S_2  and  C_5 
REMARK    3  A    between atoms: C_8  and  C_9 
REMARK    4  A    between atoms: C_9  and  C_10 
REMARK    5  A    between atoms: C_14  and  N_15 
REMARK       I    between atoms: N_15  and  C_16 
REMARK       I    between atoms: C_16  and  N_18 
REMARK    6  A    between atoms: N_18  and  C_19 
REMARK    7  A    between atoms: C_20  and  C_25 
REMARK    8  A    between atoms: C_25  and  C_27 
REMARK    9  A    between atoms: C_25  and  C_38 
REMARK   10  A    between atoms: C_27  and  N_28 
REMARK       I    between atoms: N_28  and  C_29 
REMARK   11  A    between atoms: C_29  and  C_31 
REMARK   12  A    between atoms: C_34  and  O_35 
REMARK   13  A    between atoms: C_38  and  C_39 
ROOT
HETATM    1  C   LIG     1     -10.868  12.552  67.195  1.00  0.00     0.060 A 
HETATM    2  C   LIG     1     -11.384  13.738  67.745  1.00  0.00    -0.023 A 
HETATM    3  C   LIG     1     -12.281  14.462  66.941  1.00  0.00    -0.057 A 
HETATM    4  C   LIG     1     -12.644  13.990  65.692  1.00  0.00     0.002 A 
HETATM    5  N   LIG     1     -12.115  12.891  65.133  1.00  0.00    -0.271 NA
HETATM    6  C   LIG     1     -11.241  12.199  65.891  1.00  0.00     0.028 A 
HETATM    7  H   LIG     1     -12.746  15.376  67.290  1.00  0.00     0.086 H 
HETATM    8  H   LIG     1     -13.404  14.501  65.107  1.00  0.00     0.114 H 
HETATM    9  H   LIG     1     -10.826  11.320  65.402  1.00  0.00     0.118 H 
ENDROOT
BRANCH   2  10
HETATM   10  C   LIG     1     -11.031  14.273  69.140  1.00  0.00    -0.011 C 
HETATM   11  H   LIG     1     -10.920  13.402  69.802  1.00  0.00     0.050 H 
BRANCH  10  12
HETATM   12  C   LIG     1      -9.676  15.045  69.198  1.00  0.00     0.002 C 
HETATM   13  H   LIG     1      -8.850  14.348  69.009  1.00  0.00     0.065 H 
HETATM   14  H   LIG     1      -9.522  15.451  70.206  1.00  0.00     0.065 H 
BRANCH  12  15
HETATM   15  N   LIG     1      -9.540  16.132  68.227  1.00  0.00    -0.360 N 
HETATM   16  C   LIG     1      -8.636  16.104  67.174  1.00  0.00     0.221 C 
HETATM   17  O   LIG     1      -7.791  15.227  67.032  1.00  0.00    -0.273 OA
HETATM   18  H   LIG     1     -10.343  16.732  68.102  1.00  0.00     0.162 HD
BRANCH  16  19
HETATM   19  C   LIG     1      -8.840  17.249  66.161  1.00  0.00     0.024 C 
HETATM   20  C   LIG     1     -10.282  17.795  66.120  1.00  0.00    -0.051 C 
HETATM   21  C   LIG     1     -10.593  18.944  67.086  1.00  0.00    -0.040 C 
HETATM   22  H   LIG     1     -11.016  16.999  66.291  1.00  0.00     0.034 H 
HETATM   23  H   LIG     1     -10.467  18.163  65.103  1.00  0.00     0.034 H 
HETATM   24  C   LIG     1      -9.508  20.015  67.093  1.00  0.00     0.035 C 
HETATM   25  H   LIG     1     -10.740  18.551  68.099  1.00  0.00     0.036 H 
HETATM   26  H   LIG     1     -11.545  19.396  66.775  1.00  0.00     0.036 H 
HETATM   27  C   LIG     1      -8.143  19.393  67.365  1.00  0.00    -0.040 C 
HETATM   28  H   LIG     1      -9.736  20.774  67.849  1.00  0.00     0.082 H 
HETATM   29  C   LIG     1      -7.787  18.361  66.296  1.00  0.00    -0.051 C 
HETATM   30  H   LIG     1      -8.136  18.924  68.356  1.00  0.00     0.036 H 
HETATM   31  H   LIG     1      -7.374  20.174  67.368  1.00  0.00     0.036 H 
HETATM   32  H   LIG     1      -6.796  17.943  66.508  1.00  0.00     0.034 H 
HETATM   33  H   LIG     1      -7.693  18.874  65.328  1.00  0.00     0.034 H 
HETATM   34  H   LIG     1      -8.653  16.775  65.186  1.00  0.00     0.054 H 
BRANCH  24  35
HETATM   35  O   LIG     1      -9.513  20.660  65.819  1.00  0.00    -0.396 OA
HETATM   36  H   LIG     1      -8.662  21.116  65.709  1.00  0.00     0.210 HD
ENDBRANCH  24  35
ENDBRANCH  16  19
ENDBRANCH  12  15
ENDBRANCH  10  12
BRANCH  10  37
HETATM   37  C   LIG     1     -12.182  15.116  69.766  1.00  0.00    -0.053 C 
HETATM   38  H   LIG     1     -12.891  15.448  68.996  1.00  0.00     0.034 H 
HETATM   39  H   LIG     1     -11.780  16.036  70.205  1.00  0.00     0.034 H 
BRANCH  37  40
HETATM   40  C   LIG     1     -12.898  14.345  70.849  1.00  0.00    -0.053 A 
HETATM   41  C   LIG     1     -12.928  14.847  72.266  1.00  0.00    -0.061 A 
HETATM   42  C   LIG     1     -14.175  14.897  71.432  1.00  0.00    -0.061 A 
HETATM   43  H   LIG     1     -12.402  15.769  72.483  1.00  0.00     0.033 H 
HETATM   44  H   LIG     1     -12.897  14.117  73.067  1.00  0.00     0.033 H 
HETATM   45  H   LIG     1     -14.524  15.872  71.112  1.00  0.00     0.033 H 
HETATM   46  H   LIG     1     -14.976  14.192  71.625  1.00  0.00     0.033 H 
HETATM   47  H   LIG     1     -12.807  13.270  70.730  1.00  0.00     0.040 H 
ENDBRANCH  37  40
ENDBRANCH  10  37
ENDBRANCH   2  10
BRANCH   1  48
HETATM   48  N   LIG     1      -9.960  11.741  67.900  1.00  0.00    -0.307 N 
HETATM   49  C   LIG     1     -10.270  10.972  69.003  1.00  0.00     0.325 C 
HETATM   50  N   LIG     1     -11.624  10.815  69.221  1.00  0.00    -0.309 N 
HETATM   51  O   LIG     1      -9.371  10.452  69.657  1.00  0.00    -0.247 OA
HETATM   52  H   LIG     1     -12.211  10.952  68.412  1.00  0.00     0.170 HD
HETATM   53  H   LIG     1      -8.983  12.027  67.896  1.00  0.00     0.170 HD
BRANCH  50  54
HETATM   54  C   LIG     1     -12.150  10.028  70.253  1.00  0.00     0.036 A 
HETATM   55  C   LIG     1     -13.078  10.561  71.143  1.00  0.00    -0.057 A 
HETATM   56  C   LIG     1     -13.590   9.766  72.163  1.00  0.00    -0.080 A 
HETATM   57  H   LIG     1     -13.429  11.584  71.029  1.00  0.00     0.086 H 
HETATM   58  C   LIG     1     -13.161   8.445  72.300  1.00  0.00    -0.076 A 
HETATM   59  H   LIG     1     -14.317  10.178  72.855  1.00  0.00     0.083 H 
HETATM   60  C   LIG     1     -12.255   7.883  71.388  1.00  0.00    -0.052 A 
HETATM   61  H   LIG     1     -13.541   7.853  73.129  1.00  0.00     0.084 H 
HETATM   62  C   LIG     1     -11.767   8.685  70.345  1.00  0.00    -0.051 A 
HETATM   63  H   LIG     1     -11.039   8.280  69.646  1.00  0.00     0.087 H 
BRANCH  60  64
HETATM   64  C   LIG     1     -11.809   6.447  71.559  1.00  0.00    -0.017 C 
HETATM   65  H   LIG     1     -12.689   5.790  71.520  1.00  0.00     0.047 H 
HETATM   66  H   LIG     1     -11.203   6.144  70.695  1.00  0.00     0.047 H 
BRANCH  64  67
HETATM   67  C   LIG     1     -11.040   6.176  72.832  1.00  0.00    -0.054 A 
HETATM   68  C   LIG     1     -11.143   4.927  73.464  1.00  0.00    -0.075 A 
HETATM   69  C   LIG     1     -10.427   4.657  74.633  1.00  0.00    -0.060 A 
HETATM   70  H   LIG     1     -11.779   4.152  73.041  1.00  0.00     0.084 H 
HETATM   71  C   LIG     1      -9.599   5.641  75.174  1.00  0.00     0.074 A 
HETATM   72  H   LIG     1     -10.512   3.677  75.097  1.00  0.00     0.085 H 
HETATM   73  C   LIG     1      -9.490   6.893  74.565  1.00  0.00    -0.060 A 
HETATM   74  C   LIG     1     -10.208   7.158  73.397  1.00  0.00    -0.075 A 
HETATM   75  H   LIG     1      -8.840   7.656  74.987  1.00  0.00     0.085 H 
HETATM   76  H   LIG     1     -10.109   8.133  72.925  1.00  0.00     0.084 H 
BRANCH  71  77
HETATM   77  S   LIG     1      -8.623   5.282  76.604  1.00  0.00     0.239 S 
HETATM   78  O   LIG     1      -7.214   5.312  76.213  1.00  0.00    -0.206 OA
HETATM   79  O   LIG     1      -9.197   4.197  77.329  1.00  0.00    -0.206 OA
BRANCH  77  80
HETATM   80  N   LIG     1      -8.845   6.643  77.567  1.00  0.00    -0.225 NA
HETATM   81  H   LIG     1      -7.951   7.108  77.714  1.00  0.00     0.136 HD
HETATM   82  H   LIG     1      -9.303   6.360  78.436  1.00  0.00     0.136 HD
ENDBRANCH  77  80
ENDBRANCH  71  77
ENDBRANCH  64  67
ENDBRANCH  60  64
ENDBRANCH  50  54
ENDBRANCH   1  48
TORSDOF 13
ENDMDL
MODEL 3
REMARK minimizedAffinity -6.35681725
REMARK minimizedRMSD -1
REMARK  13 active torsions:
REMARK  status: ('A' for Active; 'I' for Inactive)
REMARK    1  A    between atoms: N_1  and  S_2 
REMARK    2  A    between atoms: S_2  and  C_5 
REMARK    3  A    between atoms: C_8  and  C_9 
REMARK    4  A    between atoms: C_9  and  C_10 
REMARK    5  A    between atoms: C_14  and  N_15 
REMARK       I    between atoms: N_15  and  C_16 
REMARK       I    between atoms: C_16  and  N_18 
REMARK    6  A    between atoms: N_18  and  C_19 
REMARK    7  A    between atoms: C_20  and  C_25 
REMARK    8  A    between atoms: C_25  and  C_27 
REMARK    9  A    between atoms: C_25  and  C_38 
REMARK   10  A    between atoms: C_27  and  N_28 
REMARK       I    between atoms: N_28  and  C_29 
REMARK   11  A    between atoms: C_29  and  C_31 
REMARK   12  A    between atoms: C_34  and  O_35 
REMARK   13  A    between atoms: C_38  and  C_39 
ROOT
HETATM    1  C   LIG     1     -10.839  12.584  67.224  1.00  0.00     0.060 A 
HETATM    2  C   LIG     1     -11.323  13.788  67.764  1.00  0.00    -0.023 A 
HETATM    3  C   LIG     1     -12.203  14.528  66.955  1.00  0.00    -0.057 A 
HETATM    4  C   LIG     1     -12.581  14.055  65.711  1.00  0.00     0.002 A 
HETATM    5  N   LIG     1     -12.082  12.937  65.161  1.00  0.00    -0.271 NA
HETATM    6  C   LIG     1     -11.224  12.230  65.924  1.00  0.00     0.028 A 
HETATM    7  H   LIG     1     -12.644  15.457  67.297  1.00  0.00     0.086 H 
HETATM    8  H   LIG     1     -13.328  14.579  65.123  1.00  0.00     0.114 H 
HETATM    9  H   LIG     1     -10.833  11.336  65.442  1.00  0.00     0.118 H 
ENDROOT
BRANCH   2  10
HETATM   10  C   LIG     1     -10.953  14.327  69.153  1.00  0.00    -0.011 C 
HETATM   11  H   LIG     1     -10.856  13.459  69.822  1.00  0.00     0.050 H 
BRANCH  10  12
HETATM   12  C   LIG     1      -9.583  15.072  69.200  1.00  0.00     0.002 C 
HETATM   13  H   LIG     1      -8.773  14.361  68.993  1.00  0.00     0.065 H 
HETATM   14  H   LIG     1      -9.407  15.467  70.209  1.00  0.00     0.065 H 
BRANCH  12  15
HETATM   15  N   LIG     1      -9.439  16.165  68.236  1.00  0.00    -0.360 N 
HETATM   16  C   LIG     1      -8.639  16.084  67.105  1.00  0.00     0.221 C 
HETATM   17  O   LIG     1      -7.890  15.140  66.874  1.00  0.00    -0.273 OA
HETATM   18  H   LIG     1     -10.194  16.835  68.194  1.00  0.00     0.162 HD
BRANCH  16  19
HETATM   19  C   LIG     1      -8.831  17.264  66.132  1.00  0.00     0.024 C 
HETATM   20  C   LIG     1     -10.273  17.811  66.093  1.00  0.00    -0.051 C 
HETATM   21  C   LIG     1     -10.596  18.925  67.096  1.00  0.00    -0.040 C 
HETATM   22  H   LIG     1     -11.008  17.010  66.226  1.00  0.00     0.034 H 
HETATM   23  H   LIG     1     -10.445  18.216  65.088  1.00  0.00     0.034 H 
HETATM   24  C   LIG     1      -9.512  19.995  67.155  1.00  0.00     0.035 C 
HETATM   25  H   LIG     1     -10.755  18.495  68.092  1.00  0.00     0.036 H 
HETATM   26  H   LIG     1     -11.544  19.388  66.790  1.00  0.00     0.036 H 
HETATM   27  C   LIG     1      -8.149  19.362  67.421  1.00  0.00    -0.040 C 
HETATM   28  H   LIG     1      -9.749  20.726  67.935  1.00  0.00     0.082 H 
HETATM   29  C   LIG     1      -7.780  18.370  66.319  1.00  0.00    -0.051 C 
HETATM   30  H   LIG     1      -8.154  18.858  68.394  1.00  0.00     0.036 H 
HETATM   31  H   LIG     1      -7.381  20.143  67.462  1.00  0.00     0.036 H 
HETATM   32  H   LIG     1      -6.791  17.945  66.528  1.00  0.00     0.034 H 
HETATM   33  H   LIG     1      -7.674  18.918  65.372  1.00  0.00     0.034 H 
HETATM   34  H   LIG     1      -8.632  16.826  65.142  1.00  0.00     0.054 H 
BRANCH  24  35
HETATM   35  O   LIG     1      -9.501  20.685  65.906  1.00  0.00    -0.396 OA
HETATM   36  H   LIG     1      -8.648  21.145  65.823  1.00  0.00     0.210 HD
ENDBRANCH  24  35
ENDBRANCH  16  19
ENDBRANCH  12  15
ENDBRANCH  10  12
BRANCH  10  37
HETATM   37  C   LIG     1     -12.084  15.198  69.777  1.00  0.00    -0.053 C 
HETATM   38  H   LIG     1     -12.662  15.711  68.998  1.00  0.00     0.034 H 
HETATM   39  H   LIG     1     -11.651  15.996  70.390  1.00  0.00     0.034 H 
BRANCH  37  40
HETATM   40  C   LIG     1     -12.995  14.367  70.651  1.00  0.00    -0.053 A 
HETATM   41  C   LIG     1     -12.963  14.500  72.148  1.00  0.00    -0.061 A 
HETATM   42  C   LIG     1     -14.136  15.034  71.378  1.00  0.00    -0.061 A 
HETATM   43  H   LIG     1     -12.252  15.197  72.576  1.00  0.00     0.033 H 
HETATM   44  H   LIG     1     -13.127  13.608  72.743  1.00  0.00     0.033 H 
HETATM   45  H   LIG     1     -14.245  16.110  71.316  1.00  0.00     0.033 H 
HETATM   46  H   LIG     1     -15.081  14.503  71.407  1.00  0.00     0.033 H 
HETATM   47  H   LIG     1     -13.142  13.363  70.268  1.00  0.00     0.040 H 
ENDBRANCH  37  40
ENDBRANCH  10  37
ENDBRANCH   2  10
BRANCH   1  48
HETATM   48  N   LIG     1      -9.951  11.757  67.934  1.00  0.00    -0.307 N 
HETATM   49  C   LIG     1     -10.275  11.016  69.052  1.00  0.00     0.325 C 
HETATM   50  N   LIG     1     -11.631  10.905  69.284  1.00  0.00    -0.309 N 
HETATM   51  O   LIG     1      -9.387  10.479  69.707  1.00  0.00    -0.247 OA
HETATM   52  H   LIG     1     -12.221  11.048  68.478  1.00  0.00     0.170 HD
HETATM   53  H   LIG     1      -8.965  12.013  67.918  1.00  0.00     0.170 HD
BRANCH  50  54
HETATM   54  C   LIG     1     -12.172  10.151  70.332  1.00  0.00     0.036 A 
HETATM   55  C   LIG     1     -13.041  10.739  71.248  1.00  0.00    -0.057 A 
HETATM   56  C   LIG     1     -13.569   9.976  72.284  1.00  0.00    -0.080 A 
HETATM   57  H   LIG     1     -13.333  11.781  71.142  1.00  0.00     0.086 H 
HETATM   58  C   LIG     1     -13.215   8.632  72.412  1.00  0.00    -0.076 A 
HETATM   59  H   LIG     1     -14.250  10.432  72.996  1.00  0.00     0.083 H 
HETATM   60  C   LIG     1     -12.372   8.017  71.476  1.00  0.00    -0.052 A 
HETATM   61  H   LIG     1     -13.606   8.065  73.253  1.00  0.00     0.084 H 
HETATM   62  C   LIG     1     -11.867   8.788  70.416  1.00  0.00    -0.051 A 
HETATM   63  H   LIG     1     -11.186   8.340  69.698  1.00  0.00     0.087 H 
BRANCH  60  64
HETATM   64  C   LIG     1     -12.007   6.558  71.636  1.00  0.00    -0.017 C 
HETATM   65  H   LIG     1     -11.748   6.365  72.687  1.00  0.00     0.047 H 
HETATM   66  H   LIG     1     -12.892   5.933  71.453  1.00  0.00     0.047 H 
BRANCH  64  67
HETATM   67  C   LIG     1     -10.874   6.093  70.750  1.00  0.00    -0.054 A 
HETATM   68  C   LIG     1      -9.594   5.894  71.291  1.00  0.00    -0.075 A 
HETATM   69  C   LIG     1      -8.539   5.451  70.487  1.00  0.00    -0.060 A 
HETATM   70  H   LIG     1      -9.413   6.077  72.348  1.00  0.00     0.084 H 
HETATM   71  C   LIG     1      -8.766   5.201  69.133  1.00  0.00     0.074 A 
HETATM   72  H   LIG     1      -7.560   5.290  70.931  1.00  0.00     0.085 H 
HETATM   73  C   LIG     1     -10.031   5.401  68.575  1.00  0.00    -0.060 A 
HETATM   74  C   LIG     1     -11.080   5.845  69.382  1.00  0.00    -0.075 A 
HETATM   75  H   LIG     1     -10.205   5.202  67.520  1.00  0.00     0.085 H 
HETATM   76  H   LIG     1     -12.064   5.989  68.940  1.00  0.00     0.084 H 
BRANCH  71  77
HETATM   77  S   LIG     1      -7.463   4.559  68.126  1.00  0.00     0.239 S 
HETATM   78  O   LIG     1      -7.811   3.189  67.749  1.00  0.00    -0.206 OA
HETATM   79  O   LIG     1      -6.197   4.905  68.684  1.00  0.00    -0.206 OA
BRANCH  77  80
HETATM   80  N   LIG     1      -7.600   5.457  66.710  1.00  0.00    -0.225 NA
HETATM   81  H   LIG     1      -7.805   4.836  65.930  1.00  0.00     0.136 HD
HETATM   82  H   LIG     1      -6.743   6.001  66.582  1.00  0.00     0.136 HD
ENDBRANCH  77  80
ENDBRANCH  71  77
ENDBRANCH  64  67
ENDBRANCH  60  64
ENDBRANCH  50  54
ENDBRANCH   1  48
TORSDOF 13
ENDMDL
MODEL 4
REMARK minimizedAffinity -4.81936264
REMARK minimizedRMSD -1
REMARK  13 active torsions:
REMARK  status: ('A' for Active; 'I' for Inactive)
REMARK    1  A    between atoms: N_1  and  S_2 
REMARK    2  A    between atoms: S_2  and  C_5 
REMARK    3  A    between atoms: C_8  and  C_9 
REMARK    4  A    between atoms: C_9  and  C_10 
REMARK    5  A    between atoms: C_14  and  N_15 
REMARK       I    between atoms: N_15  and  C_16 
REMARK       I    between atoms: C_16  and  N_18 
REMARK    6  A    between atoms: N_18  and  C_19 
REMARK    7  A    between atoms: C_20  and  C_25 
REMARK    8  A    between atoms: C_25  and  C_27 
REMARK    9  A    between atoms: C_25  and  C_38 
REMARK   10  A    between atoms: C_27  and  N_28 
REMARK       I    between atoms: N_28  and  C_29 
REMARK   11  A    between atoms: C_29  and  C_31 
REMARK   12  A    between atoms: C_34  and  O_35 
REMARK   13  A    between atoms: C_38  and  C_39 
ROOT
HETATM    1  C   LIG     1      -3.638  15.703  60.183  1.00  0.00     0.060 A 
HETATM    2  C   LIG     1      -4.477  15.593  59.061  1.00  0.00    -0.023 A 
HETATM    3  C   LIG     1      -5.250  14.423  58.969  1.00  0.00    -0.057 A 
HETATM    4  C   LIG     1      -5.194  13.462  59.964  1.00  0.00     0.002 A 
HETATM    5  N   LIG     1      -4.356  13.528  61.010  1.00  0.00    -0.271 NA
HETATM    6  C   LIG     1      -3.599  14.641  61.097  1.00  0.00     0.028 A 
HETATM    7  H   LIG     1      -5.942  14.261  58.150  1.00  0.00     0.086 H 
HETATM    8  H   LIG     1      -5.855  12.602  59.940  1.00  0.00     0.114 H 
HETATM    9  H   LIG     1      -2.926  14.655  61.952  1.00  0.00     0.118 H 
ENDROOT
BRANCH   2  10
HETATM   10  C   LIG     1      -4.591  16.653  57.956  1.00  0.00    -0.011 C 
HETATM   11  H   LIG     1      -4.197  17.593  58.368  1.00  0.00     0.050 H 
BRANCH  10  12
HETATM   12  C   LIG     1      -3.742  16.339  56.686  1.00  0.00     0.002 C 
HETATM   13  H   LIG     1      -2.783  16.869  56.747  1.00  0.00     0.065 H 
HETATM   14  H   LIG     1      -4.255  16.716  55.792  1.00  0.00     0.065 H 
BRANCH  12  15
HETATM   15  N   LIG     1      -3.426  14.923  56.485  1.00  0.00    -0.360 N 
HETATM   16  C   LIG     1      -3.992  14.150  55.481  1.00  0.00     0.221 C 
HETATM   17  O   LIG     1      -4.894  14.548  54.750  1.00  0.00    -0.273 OA
HETATM   18  H   LIG     1      -2.535  14.604  56.837  1.00  0.00     0.162 HD
BRANCH  16  19
HETATM   19  C   LIG     1      -3.333  12.765  55.328  1.00  0.00     0.024 C 
HETATM   20  C   LIG     1      -2.170  12.517  56.310  1.00  0.00    -0.051 C 
HETATM   21  C   LIG     1      -2.550  11.898  57.660  1.00  0.00    -0.040 C 
HETATM   22  H   LIG     1      -1.608  13.437  56.504  1.00  0.00     0.034 H 
HETATM   23  H   LIG     1      -1.467  11.830  55.822  1.00  0.00     0.034 H 
HETATM   24  C   LIG     1      -3.522  10.732  57.519  1.00  0.00     0.035 C 
HETATM   25  H   LIG     1      -2.978  12.666  58.316  1.00  0.00     0.036 H 
HETATM   26  H   LIG     1      -1.627  11.543  58.139  1.00  0.00     0.036 H 
HETATM   27  C   LIG     1      -4.748  11.151  56.715  1.00  0.00    -0.040 C 
HETATM   28  H   LIG     1      -3.822  10.372  58.508  1.00  0.00     0.082 H 
HETATM   29  C   LIG     1      -4.354  11.616  55.314  1.00  0.00    -0.051 C 
HETATM   30  H   LIG     1      -5.284  11.951  57.239  1.00  0.00     0.036 H 
HETATM   31  H   LIG     1      -5.437  10.303  56.622  1.00  0.00     0.036 H 
HETATM   32  H   LIG     1      -5.256  11.895  54.755  1.00  0.00     0.034 H 
HETATM   33  H   LIG     1      -3.918  10.766  54.770  1.00  0.00     0.034 H 
HETATM   34  H   LIG     1      -2.896  12.790  54.319  1.00  0.00     0.054 H 
BRANCH  24  35
HETATM   35  O   LIG     1      -2.840   9.664  56.860  1.00  0.00    -0.396 OA
HETATM   36  H   LIG     1      -3.508   9.054  56.505  1.00  0.00     0.210 HD
ENDBRANCH  24  35
ENDBRANCH  16  19
ENDBRANCH  12  15
ENDBRANCH  10  12
BRANCH  10  37
HETATM   37  C   LIG     1      -6.070  16.963  57.576  1.00  0.00    -0.053 C 
HETATM   38  H   LIG     1      -6.458  17.810  58.158  1.00  0.00     0.034 H 
HETATM   39  H   LIG     1      -6.712  16.114  57.836  1.00  0.00     0.034 H 
BRANCH  37  40
HETATM   40  C   LIG     1      -6.210  17.230  56.096  1.00  0.00    -0.053 A 
HETATM   41  C   LIG     1      -7.547  17.136  55.416  1.00  0.00    -0.061 A 
HETATM   42  C   LIG     1      -6.915  18.480  55.631  1.00  0.00    -0.061 A 
HETATM   43  H   LIG     1      -8.400  16.852  56.021  1.00  0.00     0.033 H 
HETATM   44  H   LIG     1      -7.577  16.761  54.399  1.00  0.00     0.033 H 
HETATM   45  H   LIG     1      -7.370  19.135  56.365  1.00  0.00     0.033 H 
HETATM   46  H   LIG     1      -6.481  19.008  54.789  1.00  0.00     0.033 H 
HETATM   47  H   LIG     1      -5.362  16.872  55.522  1.00  0.00     0.040 H 
ENDBRANCH  37  40
ENDBRANCH  10  37
ENDBRANCH   2  10
BRANCH   1  48
HETATM   48  N   LIG     1      -2.815  16.824  60.387  1.00  0.00    -0.307 N 
HETATM   49  C   LIG     1      -3.245  18.059  60.828  1.00  0.00     0.325 C 
HETATM   50  N   LIG     1      -4.525  18.060  61.345  1.00  0.00    -0.309 N 
HETATM   51  O   LIG     1      -2.483  19.020  60.791  1.00  0.00    -0.247 OA
HETATM   52  H   LIG     1      -4.862  17.166  61.669  1.00  0.00     0.170 HD
HETATM   53  H   LIG     1      -1.977  16.895  59.812  1.00  0.00     0.170 HD
BRANCH  50  54
HETATM   54  C   LIG     1      -5.130  19.196  61.895  1.00  0.00     0.036 A 
HETATM   55  C   LIG     1      -5.445  20.288  61.090  1.00  0.00    -0.057 A 
HETATM   56  C   LIG     1      -6.045  21.409  61.653  1.00  0.00    -0.080 A 
HETATM   57  H   LIG     1      -5.254  20.258  60.020  1.00  0.00     0.086 H 
HETATM   58  C   LIG     1      -6.314  21.443  63.022  1.00  0.00    -0.076 A 
HETATM   59  H   LIG     1      -6.296  22.258  61.026  1.00  0.00     0.083 H 
HETATM   60  C   LIG     1      -6.037  20.337  63.839  1.00  0.00    -0.052 A 
HETATM   61  H   LIG     1      -6.745  22.345  63.450  1.00  0.00     0.084 H 
HETATM   62  C   LIG     1      -5.459  19.199  63.256  1.00  0.00    -0.051 A 
HETATM   63  H   LIG     1      -5.205  18.343  63.876  1.00  0.00     0.087 H 
BRANCH  60  64
HETATM   64  C   LIG     1      -6.342  20.400  65.319  1.00  0.00    -0.017 C 
HETATM   65  H   LIG     1      -5.400  20.349  65.883  1.00  0.00     0.047 H 
HETATM   66  H   LIG     1      -6.758  21.385  65.570  1.00  0.00     0.047 H 
BRANCH  64  67
HETATM   67  C   LIG     1      -7.278  19.321  65.814  1.00  0.00    -0.054 A 
HETATM   68  C   LIG     1      -8.621  19.624  66.088  1.00  0.00    -0.075 A 
HETATM   69  C   LIG     1      -9.501  18.634  66.533  1.00  0.00    -0.060 A 
HETATM   70  H   LIG     1      -8.990  20.638  65.949  1.00  0.00     0.084 H 
HETATM   71  C   LIG     1      -9.038  17.329  66.701  1.00  0.00     0.074 A 
HETATM   72  H   LIG     1     -10.540  18.890  66.725  1.00  0.00     0.085 H 
HETATM   73  C   LIG     1      -7.703  17.009  66.442  1.00  0.00    -0.060 A 
HETATM   74  C   LIG     1      -6.828  18.002  65.999  1.00  0.00    -0.075 A 
HETATM   75  H   LIG     1      -7.347  15.989  66.571  1.00  0.00     0.085 H 
HETATM   76  H   LIG     1      -5.792  17.741  65.792  1.00  0.00     0.084 H 
BRANCH  71  77
HETATM   77  S   LIG     1     -10.161  16.051  67.180  1.00  0.00     0.239 S 
HETATM   78  O   LIG     1      -9.417  15.057  67.954  1.00  0.00    -0.206 OA
HETATM   79  O   LIG     1     -11.000  15.699  66.082  1.00  0.00    -0.206 OA
BRANCH  77  80
HETATM   80  N   LIG     1     -11.161  16.820  68.292  1.00  0.00    -0.225 NA
HETATM   81  H   LIG     1     -11.075  16.368  69.200  1.00  0.00     0.136 HD
HETATM   82  H   LIG     1     -12.117  16.822  67.929  1.00  0.00     0.136 HD
ENDBRANCH  77  80
ENDBRANCH  71  77
ENDBRANCH  64  67
ENDBRANCH  60  64
ENDBRANCH  50  54
ENDBRANCH   1  48
TORSDOF 13
ENDMDL
MODEL 5
REMARK minimizedAffinity -4.48559093
REMARK minimizedRMSD -1
REMARK  13 active torsions:
REMARK  status: ('A' for Active; 'I' for Inactive)
REMARK    1  A    between atoms: N_1  and  S_2 
REMARK    2  A    between atoms: S_2  and  C_5 
REMARK    3  A    between atoms: C_8  and  C_9 
REMARK    4  A    between atoms: C_9  and  C_10 
REMARK    5  A    between atoms: C_14  and  N_15 
REMARK       I    between atoms: N_15  and  C_16 
REMARK       I    between atoms: C_16  and  N_18 
REMARK    6  A    between atoms: N_18  and  C_19 
REMARK    7  A    between atoms: C_20  and  C_25 
REMARK    8  A    between atoms: C_25  and  C_27 
REMARK    9  A    between atoms: C_25  and  C_38 
REMARK   10  A    between atoms: C_27  and  N_28 
REMARK       I    between atoms: N_28  and  C_29 
REMARK   11  A    between atoms: C_29  and  C_31 
REMARK   12  A    between atoms: C_34  and  O_35 
REMARK   13  A    between atoms: C_38  and  C_39 
ROOT
HETATM    1  C   LIG     1      -3.673  16.003  60.106  1.00  0.00     0.060 A 
HETATM    2  C   LIG     1      -4.604  15.932  59.056  1.00  0.00    -0.023 A 
HETATM    3  C   LIG     1      -5.319  14.729  58.933  1.00  0.00    -0.057 A 
HETATM    4  C   LIG     1      -5.119  13.697  59.834  1.00  0.00     0.002 A 
HETATM    5  N   LIG     1      -4.194  13.730  60.805  1.00  0.00    -0.271 NA
HETATM    6  C   LIG     1      -3.492  14.877  60.919  1.00  0.00     0.028 A 
HETATM    7  H   LIG     1      -6.073  14.591  58.167  1.00  0.00     0.086 H 
HETATM    8  H   LIG     1      -5.733  12.802  59.795  1.00  0.00     0.114 H 
HETATM    9  H   LIG     1      -2.745  14.863  61.710  1.00  0.00     0.118 H 
ENDROOT
BRANCH   2  10
HETATM   10  C   LIG     1      -4.877  17.069  58.060  1.00  0.00    -0.011 C 
HETATM   11  H   LIG     1      -4.800  18.014  58.617  1.00  0.00     0.050 H 
BRANCH  10  12
HETATM   12  C   LIG     1      -3.837  17.157  56.900  1.00  0.00     0.002 C 
HETATM   13  H   LIG     1      -3.172  18.013  57.070  1.00  0.00     0.065 H 
HETATM   14  H   LIG     1      -4.354  17.343  55.949  1.00  0.00     0.065 H 
BRANCH  12  15
HETATM   15  N   LIG     1      -2.979  15.982  56.745  1.00  0.00    -0.360 N 
HETATM   16  C   LIG     1      -1.614  15.996  56.997  1.00  0.00     0.221 C 
HETATM   17  O   LIG     1      -0.985  17.017  57.254  1.00  0.00    -0.273 OA
HETATM   18  H   LIG     1      -3.429  15.080  56.811  1.00  0.00     0.162 HD
BRANCH  16  19
HETATM   19  C   LIG     1      -0.974  14.593  56.989  1.00  0.00     0.024 C 
HETATM   20  C   LIG     1      -1.809  13.524  57.724  1.00  0.00    -0.051 C 
HETATM   21  C   LIG     1      -2.839  12.773  56.872  1.00  0.00    -0.040 C 
HETATM   22  H   LIG     1      -2.328  13.948  58.590  1.00  0.00     0.034 H 
HETATM   23  H   LIG     1      -1.110  12.778  58.125  1.00  0.00     0.034 H 
HETATM   24  C   LIG     1      -2.276  12.327  55.528  1.00  0.00     0.035 C 
HETATM   25  H   LIG     1      -3.725  13.401  56.719  1.00  0.00     0.036 H 
HETATM   26  H   LIG     1      -3.164  11.890  57.439  1.00  0.00     0.036 H 
HETATM   27  C   LIG     1      -1.670  13.511  54.781  1.00  0.00    -0.040 C 
HETATM   28  H   LIG     1      -3.066  11.864  54.926  1.00  0.00     0.082 H 
HETATM   29  C   LIG     1      -0.536  14.144  55.585  1.00  0.00    -0.051 C 
HETATM   30  H   LIG     1      -2.444  14.257  54.571  1.00  0.00     0.036 H 
HETATM   31  H   LIG     1      -1.271  13.175  53.817  1.00  0.00     0.036 H 
HETATM   32  H   LIG     1      -0.110  14.980  55.019  1.00  0.00     0.034 H 
HETATM   33  H   LIG     1       0.276  13.411  55.689  1.00  0.00     0.034 H 
HETATM   34  H   LIG     1      -0.046  14.722  57.565  1.00  0.00     0.054 H 
BRANCH  24  35
HETATM   35  O   LIG     1      -1.281  11.333  55.771  1.00  0.00    -0.396 OA
HETATM   36  H   LIG     1      -0.723  11.264  54.978  1.00  0.00     0.210 HD
ENDBRANCH  24  35
ENDBRANCH  16  19
ENDBRANCH  12  15
ENDBRANCH  10  12
BRANCH  10  37
HETATM   37  C   LIG     1      -6.332  17.040  57.505  1.00  0.00    -0.053 C 
HETATM   38  H   LIG     1      -6.954  17.807  57.986  1.00  0.00     0.034 H 
HETATM   39  H   LIG     1      -6.810  16.085  57.748  1.00  0.00     0.034 H 
BRANCH  37  40
HETATM   40  C   LIG     1      -6.348  17.212  56.004  1.00  0.00    -0.053 A 
HETATM   41  C   LIG     1      -7.621  17.049  55.220  1.00  0.00    -0.061 A 
HETATM   42  C   LIG     1      -7.028  18.416  55.402  1.00  0.00    -0.061 A 
HETATM   43  H   LIG     1      -8.518  16.787  55.767  1.00  0.00     0.033 H 
HETATM   44  H   LIG     1      -7.558  16.611  54.230  1.00  0.00     0.033 H 
HETATM   45  H   LIG     1      -7.554  19.106  56.052  1.00  0.00     0.033 H 
HETATM   46  H   LIG     1      -6.531  18.899  54.568  1.00  0.00     0.033 H 
HETATM   47  H   LIG     1      -5.449  16.835  55.528  1.00  0.00     0.040 H 
ENDBRANCH  37  40
ENDBRANCH  10  37
ENDBRANCH   2  10
BRANCH   1  48
HETATM   48  N   LIG     1      -2.895  17.153  60.331  1.00  0.00    -0.307 N 
HETATM   49  C   LIG     1      -3.346  18.316  60.921  1.00  0.00     0.325 C 
HETATM   50  N   LIG     1      -4.566  18.194  61.555  1.00  0.00    -0.309 N 
HETATM   51  O   LIG     1      -2.644  19.323  60.899  1.00  0.00    -0.247 OA
HETATM   52  H   LIG     1      -4.819  17.256  61.827  1.00  0.00     0.170 HD
HETATM   53  H   LIG     1      -2.124  17.325  59.688  1.00  0.00     0.170 HD
BRANCH  50  54
HETATM   54  C   LIG     1      -5.174  19.239  62.261  1.00  0.00     0.036 A 
HETATM   55  C   LIG     1      -5.482  20.436  61.621  1.00  0.00    -0.057 A 
HETATM   56  C   LIG     1      -6.085  21.465  62.337  1.00  0.00    -0.080 A 
HETATM   57  H   LIG     1      -5.283  20.563  60.560  1.00  0.00     0.086 H 
HETATM   58  C   LIG     1      -6.364  21.300  63.695  1.00  0.00    -0.076 A 
HETATM   59  H   LIG     1      -6.330  22.397  61.839  1.00  0.00     0.083 H 
HETATM   60  C   LIG     1      -6.095  20.086  64.344  1.00  0.00    -0.052 A 
HETATM   61  H   LIG     1      -6.797  22.130  64.246  1.00  0.00     0.084 H 
HETATM   62  C   LIG     1      -5.513  19.044  63.605  1.00  0.00    -0.051 A 
HETATM   63  H   LIG     1      -5.265  18.105  64.095  1.00  0.00     0.087 H 
BRANCH  60  64
HETATM   64  C   LIG     1      -6.410  19.933  65.815  1.00  0.00    -0.017 C 
HETATM   65  H   LIG     1      -5.559  20.298  66.406  1.00  0.00     0.047 H 
HETATM   66  H   LIG     1      -7.239  20.601  66.087  1.00  0.00     0.047 H 
BRANCH  64  67
HETATM   67  C   LIG     1      -6.744  18.521  66.242  1.00  0.00    -0.054 A 
HETATM   68  C   LIG     1      -5.754  17.706  66.812  1.00  0.00    -0.075 A 
HETATM   69  C   LIG     1      -6.051  16.403  67.224  1.00  0.00    -0.060 A 
HETATM   70  H   LIG     1      -4.744  18.085  66.944  1.00  0.00     0.084 H 
HETATM   71  C   LIG     1      -7.349  15.913  67.069  1.00  0.00     0.074 A 
HETATM   72  H   LIG     1      -5.272  15.795  67.676  1.00  0.00     0.085 H 
HETATM   73  C   LIG     1      -8.346  16.707  66.496  1.00  0.00    -0.060 A 
HETATM   74  C   LIG     1      -8.043  18.007  66.085  1.00  0.00    -0.075 A 
HETATM   75  H   LIG     1      -9.356  16.323  66.380  1.00  0.00     0.085 H 
HETATM   76  H   LIG     1      -8.828  18.620  65.648  1.00  0.00     0.084 H 
BRANCH  71  77
HETATM   77  S   LIG     1      -7.758  14.300  67.664  1.00  0.00     0.239 S 
HETATM   78  O   LIG     1      -8.686  14.449  68.784  1.00  0.00    -0.206 OA
HETATM   79  O   LIG     1      -6.584  13.494  67.741  1.00  0.00    -0.206 OA
BRANCH  77  80
HETATM   80  N   LIG     1      -8.675  13.654  66.411  1.00  0.00    -0.225 NA
HETATM   81  H   LIG     1      -9.614  13.447  66.746  1.00  0.00     0.136 HD
HETATM   82  H   LIG     1      -8.189  12.836  66.035  1.00  0.00     0.136 HD
ENDBRANCH  77  80
ENDBRANCH  71  77
ENDBRANCH  64  67
ENDBRANCH  60  64
ENDBRANCH  50  54
ENDBRANCH   1  48
TORSDOF 13
ENDMDL
