MODEL 1
REMARK minimizedAffinity -7.91820192
REMARK minimizedRMSD -1
REMARK  14 active torsions:
REMARK  status: ('A' for Active; 'I' for Inactive)
REMARK    1  A    between atoms: N_1  and  S_2 
REMARK    2  A    between atoms: S_2  and  C_5 
REMARK    3  A    between atoms: C_8  and  C_9 
REMARK    4  A    between atoms: C_9  and  C_10 
REMARK    5  A    between atoms: C_14  and  N_15 
REMARK       I    between atoms: N_15  and  C_16 
REMARK    6  A    between atoms: C_16  and  C_18 
REMARK    7  A    between atoms: C_18  and  C_19 
REMARK    8  A    between atoms: C_18  and  C_21 
REMARK    9  A    between atoms: C_19  and  S_20 
REMARK   10  A    between atoms: C_26  and  C_27 
REMARK   11  A    between atoms: C_27  and  C_28 
REMARK   12  A    between atoms: C_28  and  N_29 
REMARK       I    between atoms: N_29  and  C_30 
REMARK   13  A    between atoms: C_30  and  C_32 
REMARK   14  A    between atoms: C_36  and  O_38 
ROOT
HETATM    1  C   LIG     1      -7.514  10.209  61.737  1.00  0.00     0.059 C 
HETATM    2  H   LIG     1      -7.892   9.843  60.770  1.00  0.00     0.063 H 
ENDROOT
BRANCH   1   3
HETATM    3  C   LIG     1      -8.759  10.379  62.626  1.00  0.00     0.231 C 
HETATM    4  N   LIG     1      -8.987  11.650  63.137  1.00  0.00    -0.327 N 
HETATM    5  H   LIG     1      -8.272  12.351  62.974  1.00  0.00     0.169 HD
HETATM    6  O   LIG     1      -9.525   9.421  62.739  1.00  0.00    -0.272 OA
BRANCH   4   7
HETATM    7  C   LIG     1     -10.159  12.111  63.804  1.00  0.00     0.035 A 
HETATM    8  C   LIG     1     -11.454  11.900  63.331  1.00  0.00    -0.057 A 
HETATM    9  C   LIG     1     -12.556  12.467  63.983  1.00  0.00    -0.080 A 
HETATM   10  H   LIG     1     -11.654  11.316  62.439  1.00  0.00     0.086 H 
HETATM   11  C   LIG     1     -12.377  13.289  65.095  1.00  0.00    -0.076 A 
HETATM   12  H   LIG     1     -13.555  12.300  63.586  1.00  0.00     0.083 H 
HETATM   13  C   LIG     1     -11.091  13.533  65.591  1.00  0.00    -0.052 A 
HETATM   14  H   LIG     1     -13.247  13.770  65.535  1.00  0.00     0.084 H 
HETATM   15  C   LIG     1      -9.995  12.896  64.961  1.00  0.00    -0.051 A 
HETATM   16  H   LIG     1      -8.996  13.068  65.357  1.00  0.00     0.087 H 
BRANCH  13  17
HETATM   17  C   LIG     1     -10.847  14.626  66.617  1.00  0.00    -0.017 C 
HETATM   18  H   LIG     1      -9.769  14.775  66.758  1.00  0.00     0.047 H 
HETATM   19  H   LIG     1     -11.196  15.564  66.162  1.00  0.00     0.047 H 
BRANCH  17  20
HETATM   20  C   LIG     1     -11.488  14.496  67.984  1.00  0.00    -0.054 A 
HETATM   21  C   LIG     1     -11.570  13.252  68.631  1.00  0.00    -0.075 A 
HETATM   22  C   LIG     1     -12.094  13.148  69.928  1.00  0.00    -0.060 A 
HETATM   23  H   LIG     1     -11.198  12.355  68.138  1.00  0.00     0.084 H 
HETATM   24  C   LIG     1     -12.561  14.298  70.559  1.00  0.00     0.074 A 
HETATM   25  H   LIG     1     -12.129  12.181  70.422  1.00  0.00     0.085 H 
HETATM   26  C   LIG     1     -12.479  15.544  69.944  1.00  0.00    -0.060 A 
HETATM   27  C   LIG     1     -11.940  15.641  68.664  1.00  0.00    -0.075 A 
HETATM   28  H   LIG     1     -12.827  16.439  70.457  1.00  0.00     0.085 H 
HETATM   29  H   LIG     1     -11.853  16.623  68.204  1.00  0.00     0.084 H 
BRANCH  24  30
HETATM   30  S   LIG     1     -13.241  14.214  72.198  1.00  0.00     0.239 S 
HETATM   31  O   LIG     1     -12.276  14.794  73.133  1.00  0.00    -0.206 OA
HETATM   32  O   LIG     1     -13.851  12.937  72.409  1.00  0.00    -0.206 OA
BRANCH  30  33
HETATM   33  N   LIG     1     -14.503  15.322  72.108  1.00  0.00    -0.225 NA
HETATM   34  H   LIG     1     -14.338  16.102  72.737  1.00  0.00     0.136 HD
HETATM   35  H   LIG     1     -15.393  14.836  72.263  1.00  0.00     0.136 HD
ENDBRANCH  30  33
ENDBRANCH  24  30
ENDBRANCH  17  20
ENDBRANCH  13  17
ENDBRANCH   4   7
ENDBRANCH   1   3
BRANCH   1  36
HETATM   36  C   LIG     1      -6.962  11.636  61.419  1.00  0.00    -0.011 C 
HETATM   37  H   LIG     1      -6.644  12.126  62.346  1.00  0.00     0.050 H 
HETATM   38  H   LIG     1      -7.765  12.258  61.003  1.00  0.00     0.050 H 
BRANCH  36  39
HETATM   39  S   LIG     1      -5.533  11.779  60.269  1.00  0.00    -0.181 SA
HETATM   40  H   LIG     1      -4.620  11.157  61.032  1.00  0.00     0.101 HD
ENDBRANCH  36  39
ENDBRANCH   1  36
BRANCH   1  41
HETATM   41  C   LIG     1      -6.520   9.137  62.194  1.00  0.00    -0.020 C 
HETATM   42  C   LIG     1      -6.493   7.904  61.523  1.00  0.00     0.009 C 
HETATM   43  N   LIG     1      -5.588   6.919  61.699  1.00  0.00    -0.273 NA
HETATM   44  H   LIG     1      -7.230   7.629  60.776  1.00  0.00     0.115 H 
HETATM   45  C   LIG     1      -4.662   7.126  62.634  1.00  0.00     0.002 C 
HETATM   46  C   LIG     1      -4.663   8.236  63.453  1.00  0.00    -0.059 C 
HETATM   47  H   LIG     1      -3.904   6.357  62.733  1.00  0.00     0.114 H 
HETATM   48  C   LIG     1      -5.602   9.271  63.268  1.00  0.00    -0.047 C 
HETATM   49  H   LIG     1      -3.915   8.266  64.233  1.00  0.00     0.086 H 
BRANCH  48  50
HETATM   50  C   LIG     1      -5.591  10.387  64.309  1.00  0.00    -0.026 C 
HETATM   51  H   LIG     1      -6.192  11.218  63.910  1.00  0.00     0.042 H 
HETATM   52  H   LIG     1      -4.583  10.796  64.435  1.00  0.00     0.042 H 
BRANCH  50  53
HETATM   53  C   LIG     1      -6.137  10.014  65.703  1.00  0.00    -0.001 C 
HETATM   54  H   LIG     1      -6.156  10.905  66.341  1.00  0.00     0.064 H 
HETATM   55  H   LIG     1      -5.474   9.279  66.168  1.00  0.00     0.064 H 
BRANCH  53  56
HETATM   56  N   LIG     1      -7.504   9.514  65.709  1.00  0.00    -0.360 N 
HETATM   57  C   LIG     1      -8.469  10.078  66.512  1.00  0.00     0.221 C 
HETATM   58  O   LIG     1      -8.225  11.011  67.271  1.00  0.00    -0.273 OA
HETATM   59  H   LIG     1      -7.793   8.923  64.943  1.00  0.00     0.162 HD
BRANCH  57  60
HETATM   60  C   LIG     1      -9.844   9.396  66.452  1.00  0.00     0.024 C 
HETATM   61  H   LIG     1     -10.303   9.730  65.512  1.00  0.00     0.054 H 
HETATM   62  C   LIG     1      -9.683   7.865  66.373  1.00  0.00    -0.051 C 
HETATM   63  C   LIG     1      -9.305   7.236  67.720  1.00  0.00    -0.040 C 
HETATM   64  H   LIG     1      -8.919   7.596  65.632  1.00  0.00     0.034 H 
HETATM   65  H   LIG     1     -10.619   7.421  66.016  1.00  0.00     0.034 H 
HETATM   66  C   LIG     1     -10.218   7.685  68.861  1.00  0.00     0.035 C 
HETATM   67  H   LIG     1      -8.271   7.503  67.969  1.00  0.00     0.036 H 
HETATM   68  H   LIG     1      -9.339   6.146  67.618  1.00  0.00     0.036 H 
HETATM   69  H   LIG     1      -9.851   7.280  69.809  1.00  0.00     0.082 H 
HETATM   70  C   LIG     1     -10.288   9.207  68.941  1.00  0.00    -0.040 C 
HETATM   71  C   LIG     1     -10.767   9.794  67.612  1.00  0.00    -0.051 C 
HETATM   72  H   LIG     1      -9.303   9.615  69.198  1.00  0.00     0.036 H 
HETATM   73  H   LIG     1     -10.985   9.512  69.730  1.00  0.00     0.036 H 
HETATM   74  H   LIG     1     -10.860  10.879  67.712  1.00  0.00     0.034 H 
HETATM   75  H   LIG     1     -11.782   9.434  67.399  1.00  0.00     0.034 H 
BRANCH  66  76
HETATM   76  O   LIG     1     -11.547   7.200  68.671  1.00  0.00    -0.396 OA
HETATM   77  H   LIG     1     -11.514   6.411  68.103  1.00  0.00     0.210 HD
ENDBRANCH  66  76
ENDBRANCH  57  60
ENDBRANCH  53  56
ENDBRANCH  50  53
ENDBRANCH  48  50
ENDBRANCH   1  41
TORSDOF 14
ENDMDL
MODEL 2
REMARK minimizedAffinity -7.61834002
REMARK minimizedRMSD -1
REMARK  14 active torsions:
REMARK  status: ('A' for Active; 'I' for Inactive)
REMARK    1  A    between atoms: N_1  and  S_2 
REMARK    2  A    between atoms: S_2  and  C_5 
REMARK    3  A    between atoms: C_8  and  C_9 
REMARK    4  A    between atoms: C_9  and  C_10 
REMARK    5  A    between atoms: C_14  and  N_15 
REMARK       I    between atoms: N_15  and  C_16 
REMARK    6  A    between atoms: C_16  and  C_18 
REMARK    7  A    between atoms: C_18  and  C_19 
REMARK    8  A    between atoms: C_18  and  C_21 
REMARK    9  A    between atoms: C_19  and  S_20 
REMARK   10  A    between atoms: C_26  and  C_27 
REMARK   11  A    between atoms: C_27  and  C_28 
REMARK   12  A    between atoms: C_28  and  N_29 
REMARK       I    between atoms: N_29  and  C_30 
REMARK   13  A    between atoms: C_30  and  C_32 
REMARK   14  A    between atoms: C_36  and  O_38 
ROOT
HETATM    1  C   LIG     1      -9.959  10.804  63.965  1.00  0.00     0.059 C 
HETATM    2  H   LIG     1     -10.398   9.799  64.063  1.00  0.00     0.063 H 
ENDROOT
BRANCH   1   3
HETATM    3  C   LIG     1      -9.825  11.335  65.404  1.00  0.00     0.231 C 
HETATM    4  N   LIG     1      -9.396  12.648  65.542  1.00  0.00    -0.327 N 
HETATM    5  H   LIG     1      -9.107  13.134  64.700  1.00  0.00     0.169 HD
HETATM    6  O   LIG     1     -10.204  10.611  66.325  1.00  0.00    -0.272 OA
BRANCH   4   7
HETATM    7  C   LIG     1      -9.388  13.428  66.735  1.00  0.00     0.035 A 
HETATM    8  C   LIG     1      -8.240  14.009  67.273  1.00  0.00    -0.057 A 
HETATM    9  C   LIG     1      -8.285  14.679  68.502  1.00  0.00    -0.080 A 
HETATM   10  H   LIG     1      -7.275  13.945  66.781  1.00  0.00     0.086 H 
HETATM   11  C   LIG     1      -9.471  14.744  69.232  1.00  0.00    -0.076 A 
HETATM   12  H   LIG     1      -7.373  15.111  68.908  1.00  0.00     0.083 H 
HETATM   13  C   LIG     1     -10.641  14.162  68.729  1.00  0.00    -0.052 A 
HETATM   14  H   LIG     1      -9.455  15.211  70.214  1.00  0.00     0.084 H 
HETATM   15  C   LIG     1     -10.592  13.549  67.454  1.00  0.00    -0.051 A 
HETATM   16  H   LIG     1     -11.505  13.115  67.051  1.00  0.00     0.087 H 
BRANCH  13  17
HETATM   17  C   LIG     1     -11.863  13.982  69.612  1.00  0.00    -0.017 C 
HETATM   18  H   LIG     1     -11.828  14.687  70.452  1.00  0.00     0.047 H 
HETATM   19  H   LIG     1     -12.728  14.307  69.016  1.00  0.00     0.047 H 
BRANCH  17  20
HETATM   20  C   LIG     1     -12.162  12.603  70.166  1.00  0.00    -0.054 A 
HETATM   21  C   LIG     1     -11.564  11.457  69.618  1.00  0.00    -0.075 A 
HETATM   22  C   LIG     1     -11.784  10.191  70.183  1.00  0.00    -0.060 A 
HETATM   23  H   LIG     1     -10.898  11.544  68.761  1.00  0.00     0.084 H 
HETATM   24  C   LIG     1     -12.629  10.082  71.283  1.00  0.00     0.074 A 
HETATM   25  H   LIG     1     -11.295   9.318  69.759  1.00  0.00     0.085 H 
HETATM   26  C   LIG     1     -13.223  11.205  71.852  1.00  0.00    -0.060 A 
HETATM   27  C   LIG     1     -12.985  12.460  71.298  1.00  0.00    -0.075 A 
HETATM   28  H   LIG     1     -13.863  11.110  72.727  1.00  0.00     0.085 H 
HETATM   29  H   LIG     1     -13.430  13.334  71.768  1.00  0.00     0.084 H 
BRANCH  24  30
HETATM   30  S   LIG     1     -12.943   8.500  72.026  1.00  0.00     0.239 S 
HETATM   31  O   LIG     1     -11.693   7.996  72.597  1.00  0.00    -0.206 OA
HETATM   32  O   LIG     1     -13.771   7.712  71.166  1.00  0.00    -0.206 OA
BRANCH  30  33
HETATM   33  N   LIG     1     -13.904   8.917  73.342  1.00  0.00    -0.225 NA
HETATM   34  H   LIG     1     -13.432   8.693  74.213  1.00  0.00     0.136 HD
HETATM   35  H   LIG     1     -14.827   8.483  73.239  1.00  0.00     0.136 HD
ENDBRANCH  30  33
ENDBRANCH  24  30
ENDBRANCH  17  20
ENDBRANCH  13  17
ENDBRANCH   4   7
ENDBRANCH   1   3
BRANCH   1  36
HETATM   36  C   LIG     1     -11.069  11.642  63.254  1.00  0.00    -0.011 C 
HETATM   37  H   LIG     1     -11.554  11.036  62.481  1.00  0.00     0.050 H 
HETATM   38  H   LIG     1     -10.613  12.495  62.735  1.00  0.00     0.050 H 
BRANCH  36  39
HETATM   39  S   LIG     1     -12.438  12.320  64.281  1.00  0.00    -0.181 SA
HETATM   40  H   LIG     1     -12.990  11.152  64.645  1.00  0.00     0.101 HD
ENDBRANCH  36  39
ENDBRANCH   1  36
BRANCH   1  41
HETATM   41  C   LIG     1      -8.639  10.577  63.221  1.00  0.00    -0.020 C 
HETATM   42  C   LIG     1      -8.454  11.180  61.967  1.00  0.00     0.009 C 
HETATM   43  N   LIG     1      -7.308  11.205  61.254  1.00  0.00    -0.273 NA
HETATM   44  H   LIG     1      -9.250  11.697  61.443  1.00  0.00     0.115 H 
HETATM   45  C   LIG     1      -6.271  10.553  61.779  1.00  0.00     0.002 C 
HETATM   46  C   LIG     1      -6.365   9.809  62.936  1.00  0.00    -0.059 C 
HETATM   47  H   LIG     1      -5.338  10.623  61.230  1.00  0.00     0.114 H 
HETATM   48  C   LIG     1      -7.558   9.787  63.687  1.00  0.00    -0.047 C 
HETATM   49  H   LIG     1      -5.485   9.253  63.230  1.00  0.00     0.086 H 
BRANCH  48  50
HETATM   50  C   LIG     1      -7.587   8.832  64.878  1.00  0.00    -0.026 C 
HETATM   51  H   LIG     1      -8.296   9.242  65.614  1.00  0.00     0.042 H 
HETATM   52  H   LIG     1      -6.620   8.814  65.391  1.00  0.00     0.042 H 
BRANCH  50  53
HETATM   53  C   LIG     1      -7.994   7.377  64.565  1.00  0.00    -0.001 C 
HETATM   54  H   LIG     1      -7.148   6.708  64.761  1.00  0.00     0.064 H 
HETATM   55  H   LIG     1      -8.255   7.292  63.507  1.00  0.00     0.064 H 
BRANCH  53  56
HETATM   56  N   LIG     1      -9.082   6.859  65.382  1.00  0.00    -0.360 N 
HETATM   57  C   LIG     1      -8.888   5.809  66.251  1.00  0.00     0.221 C 
HETATM   58  O   LIG     1      -7.802   5.249  66.367  1.00  0.00    -0.273 OA
HETATM   59  H   LIG     1      -9.906   7.434  65.488  1.00  0.00     0.162 HD
BRANCH  57  60
HETATM   60  C   LIG     1     -10.148   5.338  66.990  1.00  0.00     0.024 C 
HETATM   61  H   LIG     1     -10.628   4.605  66.328  1.00  0.00     0.054 H 
HETATM   62  C   LIG     1      -9.766   4.605  68.292  1.00  0.00    -0.051 C 
HETATM   63  C   LIG     1      -9.334   5.565  69.409  1.00  0.00    -0.040 C 
HETATM   64  H   LIG     1      -8.954   3.891  68.108  1.00  0.00     0.034 H 
HETATM   65  H   LIG     1     -10.620   4.010  68.637  1.00  0.00     0.034 H 
HETATM   66  C   LIG     1     -10.330   6.703  69.631  1.00  0.00     0.035 C 
HETATM   67  H   LIG     1      -8.356   5.994  69.162  1.00  0.00     0.036 H 
HETATM   68  H   LIG     1      -9.208   4.990  70.333  1.00  0.00     0.036 H 
HETATM   69  H   LIG     1      -9.931   7.404  70.372  1.00  0.00     0.082 H 
HETATM   70  C   LIG     1     -10.620   7.440  68.326  1.00  0.00    -0.040 C 
HETATM   71  C   LIG     1     -11.147   6.470  67.267  1.00  0.00    -0.051 C 
HETATM   72  H   LIG     1      -9.711   7.934  67.964  1.00  0.00     0.036 H 
HETATM   73  H   LIG     1     -11.373   8.219  68.493  1.00  0.00     0.036 H 
HETATM   74  H   LIG     1     -11.397   7.029  66.362  1.00  0.00     0.034 H 
HETATM   75  H   LIG     1     -12.094   6.033  67.611  1.00  0.00     0.034 H 
BRANCH  66  76
HETATM   76  O   LIG     1     -11.570   6.205  70.133  1.00  0.00    -0.396 OA
HETATM   77  H   LIG     1     -11.410   5.354  70.574  1.00  0.00     0.210 HD
ENDBRANCH  66  76
ENDBRANCH  57  60
ENDBRANCH  53  56
ENDBRANCH  50  53
ENDBRANCH  48  50
ENDBRANCH   1  41
TORSDOF 14
ENDMDL
MODEL 3
REMARK minimizedAffinity -6.11026716
REMARK minimizedRMSD -1
REMARK  14 active torsions:
REMARK  status: ('A' for Active; 'I' for Inactive)
REMARK    1  A    between atoms: N_1  and  S_2 
REMARK    2  A    between atoms: S_2  and  C_5 
REMARK    3  A    between atoms: C_8  and  C_9 
REMARK    4  A    between atoms: C_9  and  C_10 
REMARK    5  A    between atoms: C_14  and  N_15 
REMARK       I    between atoms: N_15  and  C_16 
REMARK    6  A    between atoms: C_16  and  C_18 
REMARK    7  A    between atoms: C_18  and  C_19 
REMARK    8  A    between atoms: C_18  and  C_21 
REMARK    9  A    between atoms: C_19  and  S_20 
REMARK   10  A    between atoms: C_26  and  C_27 
REMARK   11  A    between atoms: C_27  and  C_28 
REMARK   12  A    between atoms: C_28  and  N_29 
REMARK       I    between atoms: N_29  and  C_30 
REMARK   13  A    between atoms: C_30  and  C_32 
REMARK   14  A    between atoms: C_36  and  O_38 
ROOT
HETATM    1  C   LIG     1      -7.469  10.740  68.391  1.00  0.00     0.059 C 
HETATM    2  H   LIG     1      -6.890  11.674  68.445  1.00  0.00     0.063 H 
ENDROOT
BRANCH   1   3
HETATM    3  C   LIG     1      -7.277  10.058  69.757  1.00  0.00     0.231 C 
HETATM    4  N   LIG     1      -7.831   8.793  69.903  1.00  0.00    -0.327 N 
HETATM    5  H   LIG     1      -8.405   8.447  69.141  1.00  0.00     0.169 HD
HETATM    6  O   LIG     1      -6.562  10.619  70.588  1.00  0.00    -0.272 OA
BRANCH   4   7
HETATM    7  C   LIG     1      -7.621   7.881  70.977  1.00  0.00     0.035 A 
HETATM    8  C   LIG     1      -7.523   6.499  70.812  1.00  0.00    -0.057 A 
HETATM    9  C   LIG     1      -7.418   5.651  71.922  1.00  0.00    -0.080 A 
HETATM   10  H   LIG     1      -7.549   6.031  69.834  1.00  0.00     0.086 H 
HETATM   11  C   LIG     1      -7.450   6.169  73.216  1.00  0.00    -0.076 A 
HETATM   12  H   LIG     1      -7.358   4.576  71.768  1.00  0.00     0.083 H 
HETATM   13  C   LIG     1      -7.559   7.549  73.420  1.00  0.00    -0.052 A 
HETATM   14  H   LIG     1      -7.437   5.478  74.055  1.00  0.00     0.084 H 
HETATM   15  C   LIG     1      -7.596   8.395  72.287  1.00  0.00    -0.051 A 
HETATM   16  H   LIG     1      -7.659   9.471  72.443  1.00  0.00     0.087 H 
BRANCH  13  17
HETATM   17  C   LIG     1      -7.867   8.110  74.798  1.00  0.00    -0.017 C 
HETATM   18  H   LIG     1      -8.896   8.490  74.827  1.00  0.00     0.047 H 
HETATM   19  H   LIG     1      -7.871   7.255  75.489  1.00  0.00     0.047 H 
BRANCH  17  20
HETATM   20  C   LIG     1      -6.954   9.176  75.369  1.00  0.00    -0.054 A 
HETATM   21  C   LIG     1      -7.392  10.035  76.390  1.00  0.00    -0.075 A 
HETATM   22  C   LIG     1      -6.520  10.969  76.969  1.00  0.00    -0.060 A 
HETATM   23  H   LIG     1      -8.413   9.964  76.763  1.00  0.00     0.084 H 
HETATM   24  C   LIG     1      -5.214  11.052  76.496  1.00  0.00     0.074 A 
HETATM   25  H   LIG     1      -6.870  11.610  77.773  1.00  0.00     0.085 H 
HETATM   26  C   LIG     1      -4.751  10.204  75.494  1.00  0.00    -0.060 A 
HETATM   27  C   LIG     1      -5.619   9.267  74.938  1.00  0.00    -0.075 A 
HETATM   28  H   LIG     1      -3.721  10.263  75.149  1.00  0.00     0.085 H 
HETATM   29  H   LIG     1      -5.239   8.589  74.176  1.00  0.00     0.084 H 
BRANCH  24  30
HETATM   30  S   LIG     1      -4.076  12.225  77.193  1.00  0.00     0.239 S 
HETATM   31  O   LIG     1      -2.805  11.545  77.451  1.00  0.00    -0.206 OA
HETATM   32  O   LIG     1      -4.738  13.024  78.177  1.00  0.00    -0.206 OA
BRANCH  30  33
HETATM   33  N   LIG     1      -3.783  13.245  75.888  1.00  0.00    -0.225 NA
HETATM   34  H   LIG     1      -2.809  13.194  75.606  1.00  0.00     0.136 HD
HETATM   35  H   LIG     1      -4.108  14.191  76.117  1.00  0.00     0.136 HD
ENDBRANCH  30  33
ENDBRANCH  24  30
ENDBRANCH  17  20
ENDBRANCH  13  17
ENDBRANCH   4   7
ENDBRANCH   1   3
BRANCH   1  36
HETATM   36  C   LIG     1      -6.716   9.881  67.324  1.00  0.00    -0.011 C 
HETATM   37  H   LIG     1      -7.305   8.989  67.081  1.00  0.00     0.050 H 
HETATM   38  H   LIG     1      -5.769   9.518  67.744  1.00  0.00     0.050 H 
BRANCH  36  39
HETATM   39  S   LIG     1      -6.312  10.661  65.707  1.00  0.00    -0.181 SA
HETATM   40  H   LIG     1      -7.568  10.833  65.267  1.00  0.00     0.101 HD
ENDBRANCH  36  39
ENDBRANCH   1  36
BRANCH   1  41
HETATM   41  C   LIG     1      -8.899  11.190  68.074  1.00  0.00    -0.020 C 
HETATM   42  C   LIG     1      -9.325  12.454  68.509  1.00  0.00     0.009 C 
HETATM   43  N   LIG     1     -10.489  13.058  68.189  1.00  0.00    -0.273 NA
HETATM   44  H   LIG     1      -8.731  13.078  69.168  1.00  0.00     0.115 H 
HETATM   45  C   LIG     1     -11.327  12.360  67.423  1.00  0.00     0.002 C 
HETATM   46  C   LIG     1     -11.082  11.057  67.044  1.00  0.00    -0.059 C 
HETATM   47  H   LIG     1     -12.235  12.871  67.122  1.00  0.00     0.114 H 
HETATM   48  C   LIG     1      -9.864  10.425  67.370  1.00  0.00    -0.047 C 
HETATM   49  H   LIG     1     -11.865  10.556  66.491  1.00  0.00     0.086 H 
BRANCH  48  50
HETATM   50  C   LIG     1      -9.755   8.946  67.011  1.00  0.00    -0.026 C 
HETATM   51  H   LIG     1      -8.748   8.608  67.301  1.00  0.00     0.042 H 
HETATM   52  H   LIG     1      -9.804   8.801  65.926  1.00  0.00     0.042 H 
BRANCH  50  53
HETATM   53  C   LIG     1     -10.793   8.013  67.669  1.00  0.00    -0.001 C 
HETATM   54  H   LIG     1     -10.529   6.969  67.467  1.00  0.00     0.064 H 
HETATM   55  H   LIG     1     -11.778   8.203  67.234  1.00  0.00     0.064 H 
BRANCH  53  56
HETATM   56  N   LIG     1     -10.868   8.112  69.119  1.00  0.00    -0.360 N 
HETATM   57  C   LIG     1     -11.230   7.033  69.893  1.00  0.00     0.221 C 
HETATM   58  O   LIG     1     -11.523   5.946  69.403  1.00  0.00    -0.273 OA
HETATM   59  H   LIG     1     -10.414   8.899  69.562  1.00  0.00     0.162 HD
BRANCH  57  60
HETATM   60  C   LIG     1     -11.327   7.317  71.398  1.00  0.00     0.024 C 
HETATM   61  H   LIG     1     -10.414   6.897  71.842  1.00  0.00     0.054 H 
HETATM   62  C   LIG     1     -11.316   8.836  71.662  1.00  0.00    -0.051 C 
HETATM   63  C   LIG     1     -12.657   9.505  71.337  1.00  0.00    -0.040 C 
HETATM   64  H   LIG     1     -10.527   9.323  71.076  1.00  0.00     0.034 H 
HETATM   65  H   LIG     1     -11.066   9.019  72.714  1.00  0.00     0.034 H 
HETATM   66  C   LIG     1     -13.848   8.794  71.980  1.00  0.00     0.035 C 
HETATM   67  H   LIG     1     -12.801   9.523  70.250  1.00  0.00     0.036 H 
HETATM   68  H   LIG     1     -12.617  10.548  71.671  1.00  0.00     0.036 H 
HETATM   69  H   LIG     1     -14.781   9.256  71.643  1.00  0.00     0.082 H 
HETATM   70  C   LIG     1     -13.851   7.308  71.630  1.00  0.00    -0.040 C 
HETATM   71  C   LIG     1     -12.540   6.651  72.062  1.00  0.00    -0.051 C 
HETATM   72  H   LIG     1     -14.000   7.176  70.552  1.00  0.00     0.036 H 
HETATM   73  H   LIG     1     -14.681   6.803  72.139  1.00  0.00     0.036 H 
HETATM   74  H   LIG     1     -12.589   5.579  71.850  1.00  0.00     0.034 H 
HETATM   75  H   LIG     1     -12.436   6.727  73.153  1.00  0.00     0.034 H 
BRANCH  66  76
HETATM   76  O   LIG     1     -13.800   8.904  73.402  1.00  0.00    -0.396 OA
HETATM   77  H   LIG     1     -13.275   9.688  73.638  1.00  0.00     0.210 HD
ENDBRANCH  66  76
ENDBRANCH  57  60
ENDBRANCH  53  56
ENDBRANCH  50  53
ENDBRANCH  48  50
ENDBRANCH   1  41
TORSDOF 14
ENDMDL
