MODEL 1
REMARK minimizedAffinity -8.00328541
REMARK minimizedRMSD -1
REMARK  11 active torsions:
REMARK  status: ('A' for Active; 'I' for Inactive)
REMARK    1  A    between atoms: N_1  and  S_2 
REMARK    2  A    between atoms: S_2  and  C_5 
REMARK    3  A    between atoms: C_8  and  C_9 
REMARK    4  A    between atoms: C_9  and  C_10 
REMARK    5  A    between atoms: C_14  and  N_15 
REMARK       I    between atoms: N_15  and  C_16 
REMARK       I    between atoms: C_16  and  N_18 
REMARK    6  A    between atoms: N_18  and  C_19 
REMARK    7  A    between atoms: C_22  and  C_23 
REMARK    8  A    between atoms: C_23  and  C_24 
REMARK    9  A    between atoms: C_24  and  N_25 
REMARK       I    between atoms: N_25  and  C_26 
REMARK   10  A    between atoms: C_26  and  C_28 
REMARK   11  A    between atoms: C_31  and  O_32 
ROOT
HETATM    1  C   LIG     1      -9.393   7.193  66.565  1.00  0.00     0.034 A 
HETATM    2  C   LIG     1      -8.136   6.811  67.016  1.00  0.00    -0.059 A 
HETATM    3  C   LIG     1      -8.032   5.825  67.995  1.00  0.00    -0.057 A 
HETATM    4  C   LIG     1      -9.196   5.235  68.484  1.00  0.00     0.035 A 
HETATM    5  N   LIG     1     -10.426   5.588  68.038  1.00  0.00    -0.264 NA
HETATM    6  C   LIG     1     -10.505   6.561  67.105  1.00  0.00     0.023 A 
HETATM    7  H   LIG     1      -7.243   7.296  66.632  1.00  0.00     0.086 H 
HETATM    8  H   LIG     1      -7.057   5.534  68.369  1.00  0.00     0.086 H 
HETATM    9  H   LIG     1     -11.515   6.821  66.801  1.00  0.00     0.117 H 
ENDROOT
BRANCH   1  10
HETATM   10  N   LIG     1      -9.480   8.177  65.560  1.00  0.00    -0.209 NA
HETATM   11  C   LIG     1     -10.114   9.384  65.841  1.00  0.00     0.303 C 
HETATM   12  N   LIG     1     -10.135  10.187  64.718  1.00  0.00    -0.313 N 
HETATM   13  O   LIG     1     -10.545   9.665  66.960  1.00  0.00    -0.253 OA
HETATM   14  H   LIG     1      -9.551   9.882  63.951  1.00  0.00     0.170 HD
HETATM   15  H   LIG     1      -9.844   7.803  64.692  1.00  0.00     0.138 HD
BRANCH  12  16
HETATM   16  C   LIG     1     -10.615  11.514  64.637  1.00  0.00     0.036 C 
HETATM   17  C   LIG     1     -11.420  11.954  63.587  1.00  0.00    -0.057 C 
HETATM   18  C   LIG     1     -12.033  13.198  63.653  1.00  0.00    -0.080 C 
HETATM   19  H   LIG     1     -11.630  11.342  62.716  1.00  0.00     0.086 H 
HETATM   20  C   LIG     1     -11.800  14.027  64.745  1.00  0.00    -0.076 C 
HETATM   21  H   LIG     1     -12.692  13.517  62.850  1.00  0.00     0.083 H 
HETATM   22  C   LIG     1     -10.822  13.714  65.700  1.00  0.00    -0.052 C 
HETATM   23  H   LIG     1     -12.341  14.969  64.795  1.00  0.00     0.084 H 
HETATM   24  C   LIG     1     -10.287  12.412  65.671  1.00  0.00    -0.051 C 
HETATM   25  H   LIG     1      -9.615  12.097  66.466  1.00  0.00     0.087 H 
BRANCH  22  26
HETATM   26  C   LIG     1     -10.382  14.720  66.760  1.00  0.00    -0.017 C 
HETATM   27  H   LIG     1      -9.330  14.503  66.988  1.00  0.00     0.047 H 
HETATM   28  H   LIG     1     -10.422  15.730  66.331  1.00  0.00     0.047 H 
BRANCH  26  29
HETATM   29  C   LIG     1     -11.161  14.770  68.084  1.00  0.00    -0.054 A 
HETATM   30  C   LIG     1     -11.496  15.964  68.741  1.00  0.00    -0.075 A 
HETATM   31  C   LIG     1     -12.333  15.980  69.858  1.00  0.00    -0.060 A 
HETATM   32  H   LIG     1     -11.137  16.923  68.377  1.00  0.00     0.084 H 
HETATM   33  C   LIG     1     -12.757  14.777  70.416  1.00  0.00     0.074 A 
HETATM   34  H   LIG     1     -12.633  16.947  70.252  1.00  0.00     0.085 H 
HETATM   35  C   LIG     1     -12.355  13.569  69.855  1.00  0.00    -0.060 A 
HETATM   36  C   LIG     1     -11.573  13.569  68.692  1.00  0.00    -0.075 A 
HETATM   37  H   LIG     1     -12.665  12.635  70.309  1.00  0.00     0.085 H 
HETATM   38  H   LIG     1     -11.280  12.618  68.257  1.00  0.00     0.084 H 
BRANCH  33  39
HETATM   39  S   LIG     1     -13.797  14.774  71.848  1.00  0.00     0.239 S 
HETATM   40  O   LIG     1     -13.386  15.878  72.687  1.00  0.00    -0.206 OA
HETATM   41  O   LIG     1     -13.883  13.425  72.364  1.00  0.00    -0.206 OA
BRANCH  39  42
HETATM   42  N   LIG     1     -15.316  15.127  71.192  1.00  0.00    -0.225 NA
HETATM   43  H   LIG     1     -15.729  16.010  71.505  1.00  0.00     0.136 HD
HETATM   44  H   LIG     1     -15.958  14.334  71.300  1.00  0.00     0.136 HD
ENDBRANCH  39  42
ENDBRANCH  33  39
ENDBRANCH  26  29
ENDBRANCH  22  26
ENDBRANCH  12  16
ENDBRANCH   1  10
BRANCH   4  45
HETATM   45  C   LIG     1      -9.111   4.180  69.561  1.00  0.00    -0.010 C 
HETATM   46  H   LIG     1      -8.082   4.148  69.938  1.00  0.00     0.044 H 
HETATM   47  H   LIG     1      -9.323   3.199  69.116  1.00  0.00     0.044 H 
BRANCH  45  48
HETATM   48  C   LIG     1     -10.071   4.437  70.726  1.00  0.00     0.000 C 
HETATM   49  H   LIG     1      -9.739   3.897  71.623  1.00  0.00     0.064 H 
HETATM   50  H   LIG     1     -11.082   4.089  70.485  1.00  0.00     0.064 H 
BRANCH  48  51
HETATM   51  N   LIG     1     -10.170   5.845  71.069  1.00  0.00    -0.360 N 
HETATM   52  C   LIG     1      -9.590   6.331  72.227  1.00  0.00     0.221 C 
HETATM   53  O   LIG     1      -8.988   5.623  73.026  1.00  0.00    -0.273 OA
HETATM   54  H   LIG     1     -10.840   6.425  70.581  1.00  0.00     0.162 HD
BRANCH  52  55
HETATM   55  C   LIG     1      -9.798   7.833  72.423  1.00  0.00     0.024 C 
HETATM   56  C   LIG     1      -8.734   8.644  71.676  1.00  0.00    -0.051 C 
HETATM   57  C   LIG     1      -9.024   8.794  70.181  1.00  0.00    -0.040 C 
HETATM   58  H   LIG     1      -7.741   8.194  71.803  1.00  0.00     0.034 H 
HETATM   59  H   LIG     1      -8.682   9.643  72.126  1.00  0.00     0.034 H 
HETATM   60  C   LIG     1     -10.428   9.328  69.910  1.00  0.00     0.035 C 
HETATM   61  H   LIG     1      -8.898   7.826  69.682  1.00  0.00     0.036 H 
HETATM   62  H   LIG     1      -8.282   9.480  69.755  1.00  0.00     0.036 H 
HETATM   63  C   LIG     1     -11.497   8.484  70.594  1.00  0.00    -0.040 C 
HETATM   64  H   LIG     1     -10.621   9.351  68.832  1.00  0.00     0.082 H 
HETATM   65  C   LIG     1     -11.229   8.268  72.084  1.00  0.00    -0.051 C 
HETATM   66  H   LIG     1     -11.572   7.515  70.088  1.00  0.00     0.036 H 
HETATM   67  H   LIG     1     -12.473   8.974  70.494  1.00  0.00     0.036 H 
HETATM   68  H   LIG     1     -11.948   7.537  72.473  1.00  0.00     0.034 H 
HETATM   69  H   LIG     1     -11.430   9.209  72.610  1.00  0.00     0.034 H 
HETATM   70  H   LIG     1      -9.663   8.015  73.499  1.00  0.00     0.054 H 
BRANCH  60  71
HETATM   71  O   LIG     1     -10.526  10.668  70.389  1.00  0.00    -0.396 OA
HETATM   72  H   LIG     1      -9.966  11.219  69.816  1.00  0.00     0.210 HD
ENDBRANCH  60  71
ENDBRANCH  52  55
ENDBRANCH  48  51
ENDBRANCH  45  48
ENDBRANCH   4  45
TORSDOF 11
ENDMDL
MODEL 2
REMARK minimizedAffinity -7.98691988
REMARK minimizedRMSD -1
REMARK  11 active torsions:
REMARK  status: ('A' for Active; 'I' for Inactive)
REMARK    1  A    between atoms: N_1  and  S_2 
REMARK    2  A    between atoms: S_2  and  C_5 
REMARK    3  A    between atoms: C_8  and  C_9 
REMARK    4  A    between atoms: C_9  and  C_10 
REMARK    5  A    between atoms: C_14  and  N_15 
REMARK       I    between atoms: N_15  and  C_16 
REMARK       I    between atoms: C_16  and  N_18 
REMARK    6  A    between atoms: N_18  and  C_19 
REMARK    7  A    between atoms: C_22  and  C_23 
REMARK    8  A    between atoms: C_23  and  C_24 
REMARK    9  A    between atoms: C_24  and  N_25 
REMARK       I    between atoms: N_25  and  C_26 
REMARK   10  A    between atoms: C_26  and  C_28 
REMARK   11  A    between atoms: C_31  and  O_32 
ROOT
HETATM    1  C   LIG     1      -7.153   9.079  61.386  1.00  0.00     0.034 A 
HETATM    2  C   LIG     1      -6.850   9.355  60.059  1.00  0.00    -0.059 A 
HETATM    3  C   LIG     1      -6.585   8.301  59.186  1.00  0.00    -0.057 A 
HETATM    4  C   LIG     1      -6.648   6.994  59.668  1.00  0.00     0.035 A 
HETATM    5  N   LIG     1      -6.960   6.715  60.956  1.00  0.00    -0.264 NA
HETATM    6  C   LIG     1      -7.192   7.751  61.790  1.00  0.00     0.023 A 
HETATM    7  H   LIG     1      -6.792  10.381  59.710  1.00  0.00     0.086 H 
HETATM    8  H   LIG     1      -6.326   8.506  58.153  1.00  0.00     0.086 H 
HETATM    9  H   LIG     1      -7.413   7.472  62.816  1.00  0.00     0.117 H 
ENDROOT
BRANCH   1  10
HETATM   10  N   LIG     1      -7.439  10.155  62.251  1.00  0.00    -0.209 NA
HETATM   11  C   LIG     1      -8.754  10.385  62.641  1.00  0.00     0.303 C 
HETATM   12  N   LIG     1      -8.827  11.506  63.444  1.00  0.00    -0.313 N 
HETATM   13  O   LIG     1      -9.684   9.643  62.320  1.00  0.00    -0.253 OA
HETATM   14  H   LIG     1      -7.942  11.867  63.774  1.00  0.00     0.170 HD
HETATM   15  H   LIG     1      -7.030  11.023  61.926  1.00  0.00     0.138 HD
BRANCH  12  16
HETATM   16  C   LIG     1      -9.977  12.003  64.099  1.00  0.00     0.036 C 
HETATM   17  C   LIG     1     -11.151  12.314  63.414  1.00  0.00    -0.057 C 
HETATM   18  C   LIG     1     -12.313  12.601  64.118  1.00  0.00    -0.080 C 
HETATM   19  H   LIG     1     -11.215  12.303  62.332  1.00  0.00     0.086 H 
HETATM   20  C   LIG     1     -12.291  12.631  65.508  1.00  0.00    -0.076 C 
HETATM   21  H   LIG     1     -13.234  12.802  63.578  1.00  0.00     0.083 H 
HETATM   22  C   LIG     1     -11.083  12.552  66.218  1.00  0.00    -0.052 C 
HETATM   23  H   LIG     1     -13.229  12.801  66.029  1.00  0.00     0.084 H 
HETATM   24  C   LIG     1      -9.938  12.162  65.498  1.00  0.00    -0.051 C 
HETATM   25  H   LIG     1      -9.012  11.976  66.037  1.00  0.00     0.087 H 
BRANCH  22  26
HETATM   26  C   LIG     1     -11.012  12.828  67.717  1.00  0.00    -0.017 C 
HETATM   27  H   LIG     1      -9.969  13.084  67.944  1.00  0.00     0.047 H 
HETATM   28  H   LIG     1     -11.624  13.711  67.946  1.00  0.00     0.047 H 
BRANCH  26  29
HETATM   29  C   LIG     1     -11.458  11.719  68.684  1.00  0.00    -0.054 A 
HETATM   30  C   LIG     1     -11.205  10.356  68.468  1.00  0.00    -0.075 A 
HETATM   31  C   LIG     1     -11.488   9.392  69.437  1.00  0.00    -0.060 A 
HETATM   32  H   LIG     1     -10.747  10.010  67.544  1.00  0.00     0.084 H 
HETATM   33  C   LIG     1     -12.148   9.766  70.605  1.00  0.00     0.074 A 
HETATM   34  H   LIG     1     -11.171   8.371  69.243  1.00  0.00     0.085 H 
HETATM   35  C   LIG     1     -12.512  11.093  70.804  1.00  0.00    -0.060 A 
HETATM   36  C   LIG     1     -12.158  12.061  69.855  1.00  0.00    -0.075 A 
HETATM   37  H   LIG     1     -13.050  11.374  71.703  1.00  0.00     0.085 H 
HETATM   38  H   LIG     1     -12.436  13.097  70.033  1.00  0.00     0.084 H 
BRANCH  33  39
HETATM   39  S   LIG     1     -12.541   8.555  71.835  1.00  0.00     0.239 S 
HETATM   40  O   LIG     1     -11.363   8.367  72.653  1.00  0.00    -0.206 OA
HETATM   41  O   LIG     1     -13.205   7.437  71.199  1.00  0.00    -0.206 OA
BRANCH  39  42
HETATM   42  N   LIG     1     -13.721   9.345  72.755  1.00  0.00    -0.225 NA
HETATM   43  H   LIG     1     -13.463   9.526  73.728  1.00  0.00     0.136 HD
HETATM   44  H   LIG     1     -14.629   8.875  72.672  1.00  0.00     0.136 HD
ENDBRANCH  39  42
ENDBRANCH  33  39
ENDBRANCH  26  29
ENDBRANCH  22  26
ENDBRANCH  12  16
ENDBRANCH   1  10
BRANCH   4  45
HETATM   45  C   LIG     1      -6.342   5.837  58.748  1.00  0.00    -0.010 C 
HETATM   46  H   LIG     1      -5.520   5.254  59.179  1.00  0.00     0.044 H 
HETATM   47  H   LIG     1      -5.990   6.231  57.786  1.00  0.00     0.044 H 
BRANCH  45  48
HETATM   48  C   LIG     1      -7.547   4.921  58.519  1.00  0.00     0.000 C 
HETATM   49  H   LIG     1      -7.364   3.930  58.954  1.00  0.00     0.064 H 
HETATM   50  H   LIG     1      -7.738   4.783  57.449  1.00  0.00     0.064 H 
BRANCH  48  51
HETATM   51  N   LIG     1      -8.767   5.443  59.110  1.00  0.00    -0.360 N 
HETATM   52  C   LIG     1      -9.952   5.444  58.395  1.00  0.00     0.221 C 
HETATM   53  O   LIG     1     -10.043   5.034  57.244  1.00  0.00    -0.273 OA
HETATM   54  H   LIG     1      -8.709   6.000  59.952  1.00  0.00     0.162 HD
BRANCH  52  55
HETATM   55  C   LIG     1     -11.128   6.031  59.175  1.00  0.00     0.024 C 
HETATM   56  C   LIG     1     -10.678   7.185  60.077  1.00  0.00    -0.051 C 
HETATM   57  C   LIG     1     -10.507   8.509  59.328  1.00  0.00    -0.040 C 
HETATM   58  H   LIG     1      -9.737   6.938  60.584  1.00  0.00     0.034 H 
HETATM   59  H   LIG     1     -11.429   7.322  60.865  1.00  0.00     0.034 H 
HETATM   60  C   LIG     1     -11.743   8.883  58.515  1.00  0.00     0.035 C 
HETATM   61  H   LIG     1      -9.637   8.447  58.665  1.00  0.00     0.036 H 
HETATM   62  H   LIG     1     -10.300   9.295  60.065  1.00  0.00     0.036 H 
HETATM   63  C   LIG     1     -12.156   7.766  57.565  1.00  0.00    -0.040 C 
HETATM   64  H   LIG     1     -11.554   9.796  57.940  1.00  0.00     0.082 H 
HETATM   65  C   LIG     1     -12.298   6.411  58.259  1.00  0.00    -0.051 C 
HETATM   66  H   LIG     1     -11.423   7.690  56.754  1.00  0.00     0.036 H 
HETATM   67  H   LIG     1     -13.121   8.012  57.104  1.00  0.00     0.036 H 
HETATM   68  H   LIG     1     -12.449   5.635  57.497  1.00  0.00     0.034 H 
HETATM   69  H   LIG     1     -13.212   6.428  58.866  1.00  0.00     0.034 H 
HETATM   70  H   LIG     1     -11.490   5.221  59.824  1.00  0.00     0.054 H 
BRANCH  60  71
HETATM   71  O   LIG     1     -12.828   9.156  59.400  1.00  0.00    -0.396 OA
HETATM   72  H   LIG     1     -12.615   9.981  59.870  1.00  0.00     0.210 HD
ENDBRANCH  60  71
ENDBRANCH  52  55
ENDBRANCH  48  51
ENDBRANCH  45  48
ENDBRANCH   4  45
TORSDOF 11
ENDMDL
MODEL 3
REMARK minimizedAffinity -7.37413597
REMARK minimizedRMSD -1
REMARK  11 active torsions:
REMARK  status: ('A' for Active; 'I' for Inactive)
REMARK    1  A    between atoms: N_1  and  S_2 
REMARK    2  A    between atoms: S_2  and  C_5 
REMARK    3  A    between atoms: C_8  and  C_9 
REMARK    4  A    between atoms: C_9  and  C_10 
REMARK    5  A    between atoms: C_14  and  N_15 
REMARK       I    between atoms: N_15  and  C_16 
REMARK       I    between atoms: C_16  and  N_18 
REMARK    6  A    between atoms: N_18  and  C_19 
REMARK    7  A    between atoms: C_22  and  C_23 
REMARK    8  A    between atoms: C_23  and  C_24 
REMARK    9  A    between atoms: C_24  and  N_25 
REMARK       I    between atoms: N_25  and  C_26 
REMARK   10  A    between atoms: C_26  and  C_28 
REMARK   11  A    between atoms: C_31  and  O_32 
ROOT
HETATM    1  C   LIG     1      -5.944  10.875  76.653  1.00  0.00     0.034 A 
HETATM    2  C   LIG     1      -6.274  12.225  76.647  1.00  0.00    -0.059 A 
HETATM    3  C   LIG     1      -5.867  13.031  77.709  1.00  0.00    -0.057 A 
HETATM    4  C   LIG     1      -5.124  12.461  78.742  1.00  0.00     0.035 A 
HETATM    5  N   LIG     1      -4.783  11.150  78.747  1.00  0.00    -0.264 NA
HETATM    6  C   LIG     1      -5.206  10.383  77.720  1.00  0.00     0.023 A 
HETATM    7  H   LIG     1      -6.866  12.643  75.839  1.00  0.00     0.086 H 
HETATM    8  H   LIG     1      -6.136  14.081  77.726  1.00  0.00     0.086 H 
HETATM    9  H   LIG     1      -4.926   9.335  77.787  1.00  0.00     0.117 H 
ENDROOT
BRANCH   1  10
HETATM   10  N   LIG     1      -6.346  10.078  75.562  1.00  0.00    -0.209 NA
HETATM   11  C   LIG     1      -7.235   9.030  75.774  1.00  0.00     0.303 C 
HETATM   12  N   LIG     1      -7.462   8.347  74.595  1.00  0.00    -0.313 N 
HETATM   13  O   LIG     1      -7.752   8.806  76.870  1.00  0.00    -0.253 OA
HETATM   14  H   LIG     1      -7.121   8.796  73.756  1.00  0.00     0.170 HD
HETATM   15  H   LIG     1      -5.555   9.741  75.026  1.00  0.00     0.138 HD
BRANCH  12  16
HETATM   16  C   LIG     1      -8.368   7.280  74.397  1.00  0.00     0.036 C 
HETATM   17  C   LIG     1      -8.321   6.110  75.153  1.00  0.00    -0.057 C 
HETATM   18  C   LIG     1      -9.350   5.182  75.066  1.00  0.00    -0.080 C 
HETATM   19  H   LIG     1      -7.521   5.901  75.855  1.00  0.00     0.086 H 
HETATM   20  C   LIG     1     -10.403   5.397  74.182  1.00  0.00    -0.076 C 
HETATM   21  H   LIG     1      -9.327   4.292  75.689  1.00  0.00     0.083 H 
HETATM   22  C   LIG     1     -10.365   6.441  73.247  1.00  0.00    -0.052 C 
HETATM   23  H   LIG     1     -11.221   4.681  74.181  1.00  0.00     0.084 H 
HETATM   24  C   LIG     1      -9.371   7.423  73.418  1.00  0.00    -0.051 C 
HETATM   25  H   LIG     1      -9.385   8.307  72.784  1.00  0.00     0.087 H 
BRANCH  22  26
HETATM   26  C   LIG     1     -11.385   6.545  72.117  1.00  0.00    -0.017 C 
HETATM   27  H   LIG     1     -12.239   5.916  72.399  1.00  0.00     0.047 H 
HETATM   28  H   LIG     1     -11.747   7.580  72.057  1.00  0.00     0.047 H 
BRANCH  26  29
HETATM   29  C   LIG     1     -10.943   6.148  70.699  1.00  0.00    -0.054 A 
HETATM   30  C   LIG     1     -10.089   5.069  70.427  1.00  0.00    -0.075 A 
HETATM   31  C   LIG     1      -9.831   4.644  69.122  1.00  0.00    -0.060 A 
HETATM   32  H   LIG     1      -9.624   4.505  71.232  1.00  0.00     0.084 H 
HETATM   33  C   LIG     1     -10.334   5.376  68.050  1.00  0.00     0.074 A 
HETATM   34  H   LIG     1      -9.244   3.739  68.992  1.00  0.00     0.085 H 
HETATM   35  C   LIG     1     -11.095   6.517  68.282  1.00  0.00    -0.060 A 
HETATM   36  C   LIG     1     -11.405   6.891  69.596  1.00  0.00    -0.075 A 
HETATM   37  H   LIG     1     -11.461   7.099  67.443  1.00  0.00     0.085 H 
HETATM   38  H   LIG     1     -12.015   7.775  69.760  1.00  0.00     0.084 H 
BRANCH  33  39
HETATM   39  S   LIG     1      -9.996   4.871  66.388  1.00  0.00     0.239 S 
HETATM   40  O   LIG     1      -9.695   3.457  66.415  1.00  0.00    -0.206 OA
HETATM   41  O   LIG     1      -9.092   5.824  65.781  1.00  0.00    -0.206 OA
BRANCH  39  42
HETATM   42  N   LIG     1     -11.493   5.093  65.632  1.00  0.00    -0.225 NA
HETATM   43  H   LIG     1     -11.930   4.239  65.276  1.00  0.00     0.136 HD
HETATM   44  H   LIG     1     -11.442   5.832  64.922  1.00  0.00     0.136 HD
ENDBRANCH  39  42
ENDBRANCH  33  39
ENDBRANCH  26  29
ENDBRANCH  22  26
ENDBRANCH  12  16
ENDBRANCH   1  10
BRANCH   4  45
HETATM   45  C   LIG     1      -4.692  13.309  79.914  1.00  0.00    -0.010 C 
HETATM   46  H   LIG     1      -5.127  12.889  80.829  1.00  0.00     0.044 H 
HETATM   47  H   LIG     1      -5.102  14.319  79.794  1.00  0.00     0.044 H 
BRANCH  45  48
HETATM   48  C   LIG     1      -3.170  13.386  80.067  1.00  0.00     0.000 C 
HETATM   49  H   LIG     1      -2.854  12.922  81.010  1.00  0.00     0.064 H 
HETATM   50  H   LIG     1      -2.830  14.427  80.079  1.00  0.00     0.064 H 
BRANCH  48  51
HETATM   51  N   LIG     1      -2.465  12.716  78.987  1.00  0.00    -0.360 N 
HETATM   52  C   LIG     1      -1.681  13.437  78.104  1.00  0.00     0.221 C 
HETATM   53  O   LIG     1      -1.550  14.654  78.161  1.00  0.00    -0.273 OA
HETATM   54  H   LIG     1      -2.715  11.766  78.750  1.00  0.00     0.162 HD
BRANCH  52  55
HETATM   55  C   LIG     1      -1.018  12.567  77.036  1.00  0.00     0.024 C 
HETATM   56  C   LIG     1      -2.057  11.762  76.250  1.00  0.00    -0.051 C 
HETATM   57  C   LIG     1      -2.757  12.576  75.159  1.00  0.00    -0.040 C 
HETATM   58  H   LIG     1      -2.815  11.342  76.922  1.00  0.00     0.034 H 
HETATM   59  H   LIG     1      -1.551  10.908  75.781  1.00  0.00     0.034 H 
HETATM   60  C   LIG     1      -1.769  13.275  74.229  1.00  0.00     0.035 C 
HETATM   61  H   LIG     1      -3.415  13.320  75.620  1.00  0.00     0.036 H 
HETATM   62  H   LIG     1      -3.391  11.895  74.576  1.00  0.00     0.036 H 
HETATM   63  C   LIG     1      -0.775  14.134  75.001  1.00  0.00    -0.040 C 
HETATM   64  H   LIG     1      -2.308  13.903  73.510  1.00  0.00     0.082 H 
HETATM   65  C   LIG     1      -0.079  13.376  76.132  1.00  0.00    -0.051 C 
HETATM   66  H   LIG     1      -1.291  15.011  75.406  1.00  0.00     0.036 H 
HETATM   67  H   LIG     1      -0.001  14.505  74.317  1.00  0.00     0.036 H 
HETATM   68  H   LIG     1       0.503  14.087  76.731  1.00  0.00     0.034 H 
HETATM   69  H   LIG     1       0.645  12.681  75.688  1.00  0.00     0.034 H 
HETATM   70  H   LIG     1      -0.386  11.853  77.583  1.00  0.00     0.054 H 
BRANCH  60  71
HETATM   71  O   LIG     1      -1.047  12.297  73.482  1.00  0.00    -0.396 OA
HETATM   72  H   LIG     1      -1.677  11.884  72.866  1.00  0.00     0.210 HD
ENDBRANCH  60  71
ENDBRANCH  52  55
ENDBRANCH  48  51
ENDBRANCH  45  48
ENDBRANCH   4  45
TORSDOF 11
ENDMDL
MODEL 4
REMARK minimizedAffinity -7.01690578
REMARK minimizedRMSD -1
REMARK  11 active torsions:
REMARK  status: ('A' for Active; 'I' for Inactive)
REMARK    1  A    between atoms: N_1  and  S_2 
REMARK    2  A    between atoms: S_2  and  C_5 
REMARK    3  A    between atoms: C_8  and  C_9 
REMARK    4  A    between atoms: C_9  and  C_10 
REMARK    5  A    between atoms: C_14  and  N_15 
REMARK       I    between atoms: N_15  and  C_16 
REMARK       I    between atoms: C_16  and  N_18 
REMARK    6  A    between atoms: N_18  and  C_19 
REMARK    7  A    between atoms: C_22  and  C_23 
REMARK    8  A    between atoms: C_23  and  C_24 
REMARK    9  A    between atoms: C_24  and  N_25 
REMARK       I    between atoms: N_25  and  C_26 
REMARK   10  A    between atoms: C_26  and  C_28 
REMARK   11  A    between atoms: C_31  and  O_32 
ROOT
HETATM    1  C   LIG     1      -6.992   8.114  76.161  1.00  0.00     0.034 A 
HETATM    2  C   LIG     1      -7.159   9.341  76.790  1.00  0.00    -0.059 A 
HETATM    3  C   LIG     1      -6.044  10.007  77.295  1.00  0.00    -0.057 A 
HETATM    4  C   LIG     1      -4.785   9.428  77.138  1.00  0.00     0.035 A 
HETATM    5  N   LIG     1      -4.611   8.240  76.510  1.00  0.00    -0.264 NA
HETATM    6  C   LIG     1      -5.707   7.602  76.048  1.00  0.00     0.023 A 
HETATM    7  H   LIG     1      -8.151   9.765  76.915  1.00  0.00     0.086 H 
HETATM    8  H   LIG     1      -6.165  10.955  77.807  1.00  0.00     0.086 H 
HETATM    9  H   LIG     1      -5.512   6.644  75.576  1.00  0.00     0.117 H 
ENDROOT
BRANCH   1  10
HETATM   10  N   LIG     1      -8.128   7.463  75.638  1.00  0.00    -0.209 NA
HETATM   11  C   LIG     1      -8.568   7.783  74.358  1.00  0.00     0.303 C 
HETATM   12  N   LIG     1      -9.715   7.076  74.054  1.00  0.00    -0.313 N 
HETATM   13  O   LIG     1      -7.965   8.566  73.622  1.00  0.00    -0.253 OA
HETATM   14  H   LIG     1      -9.948   6.326  74.690  1.00  0.00     0.170 HD
HETATM   15  H   LIG     1      -8.913   7.494  76.278  1.00  0.00     0.138 HD
BRANCH  12  16
HETATM   16  C   LIG     1     -10.402   7.071  72.819  1.00  0.00     0.036 C 
HETATM   17  C   LIG     1     -10.073   6.196  71.784  1.00  0.00    -0.057 C 
HETATM   18  C   LIG     1     -10.900   6.086  70.675  1.00  0.00    -0.080 C 
HETATM   19  H   LIG     1      -9.202   5.551  71.821  1.00  0.00     0.086 H 
HETATM   20  C   LIG     1     -12.031   6.889  70.572  1.00  0.00    -0.076 C 
HETATM   21  H   LIG     1     -10.659   5.372  69.891  1.00  0.00     0.083 H 
HETATM   22  C   LIG     1     -12.265   7.934  71.477  1.00  0.00    -0.052 C 
HETATM   23  H   LIG     1     -12.689   6.736  69.720  1.00  0.00     0.084 H 
HETATM   24  C   LIG     1     -11.476   7.965  72.643  1.00  0.00    -0.051 C 
HETATM   25  H   LIG     1     -11.708   8.689  73.421  1.00  0.00     0.087 H 
BRANCH  22  26
HETATM   26  C   LIG     1     -13.358   8.973  71.241  1.00  0.00    -0.017 C 
HETATM   27  H   LIG     1     -13.924   8.644  70.360  1.00  0.00     0.047 H 
HETATM   28  H   LIG     1     -14.048   8.963  72.096  1.00  0.00     0.047 H 
BRANCH  26  29
HETATM   29  C   LIG     1     -12.939  10.436  71.027  1.00  0.00    -0.054 A 
HETATM   30  C   LIG     1     -12.095  10.855  69.988  1.00  0.00    -0.075 A 
HETATM   31  C   LIG     1     -11.858  12.208  69.732  1.00  0.00    -0.060 A 
HETATM   32  H   LIG     1     -11.622  10.136  69.324  1.00  0.00     0.084 H 
HETATM   33  C   LIG     1     -12.371  13.170  70.597  1.00  0.00     0.074 A 
HETATM   34  H   LIG     1     -11.279  12.461  68.848  1.00  0.00     0.085 H 
HETATM   35  C   LIG     1     -13.122  12.784  71.702  1.00  0.00    -0.060 A 
HETATM   36  C   LIG     1     -13.412  11.428  71.906  1.00  0.00    -0.075 A 
HETATM   37  H   LIG     1     -13.496  13.536  72.388  1.00  0.00     0.085 H 
HETATM   38  H   LIG     1     -14.013  11.144  72.765  1.00  0.00     0.084 H 
BRANCH  33  39
HETATM   39  S   LIG     1     -12.060  14.888  70.307  1.00  0.00     0.239 S 
HETATM   40  O   LIG     1     -12.835  15.640  71.269  1.00  0.00    -0.206 OA
HETATM   41  O   LIG     1     -12.159  15.151  68.887  1.00  0.00    -0.206 OA
BRANCH  39  42
HETATM   42  N   LIG     1     -10.421  15.030  70.700  1.00  0.00    -0.225 NA
HETATM   43  H   LIG     1     -10.217  15.637  71.497  1.00  0.00     0.136 HD
HETATM   44  H   LIG     1      -9.862  15.268  69.873  1.00  0.00     0.136 HD
ENDBRANCH  39  42
ENDBRANCH  33  39
ENDBRANCH  26  29
ENDBRANCH  22  26
ENDBRANCH  12  16
ENDBRANCH   1  10
BRANCH   4  45
HETATM   45  C   LIG     1      -3.564  10.119  77.696  1.00  0.00    -0.010 C 
HETATM   46  H   LIG     1      -3.893  10.932  78.355  1.00  0.00     0.044 H 
HETATM   47  H   LIG     1      -3.005  10.577  76.870  1.00  0.00     0.044 H 
BRANCH  45  48
HETATM   48  C   LIG     1      -2.648   9.174  78.477  1.00  0.00     0.000 C 
HETATM   49  H   LIG     1      -1.974   9.744  79.129  1.00  0.00     0.064 H 
HETATM   50  H   LIG     1      -2.027   8.579  77.798  1.00  0.00     0.064 H 
BRANCH  48  51
HETATM   51  N   LIG     1      -3.385   8.241  79.312  1.00  0.00    -0.360 N 
HETATM   52  C   LIG     1      -3.182   6.878  79.196  1.00  0.00     0.221 C 
HETATM   53  O   LIG     1      -2.402   6.381  78.392  1.00  0.00    -0.273 OA
HETATM   54  H   LIG     1      -4.196   8.569  79.820  1.00  0.00     0.162 HD
BRANCH  52  55
HETATM   55  C   LIG     1      -4.044   6.054  80.152  1.00  0.00     0.024 C 
HETATM   56  C   LIG     1      -5.215   6.878  80.696  1.00  0.00    -0.051 C 
HETATM   57  C   LIG     1      -6.389   6.983  79.720  1.00  0.00    -0.040 C 
HETATM   58  H   LIG     1      -4.886   7.889  80.968  1.00  0.00     0.034 H 
HETATM   59  H   LIG     1      -5.569   6.407  81.622  1.00  0.00     0.034 H 
HETATM   60  C   LIG     1      -6.851   5.619  79.215  1.00  0.00     0.035 C 
HETATM   61  H   LIG     1      -6.105   7.612  78.869  1.00  0.00     0.036 H 
HETATM   62  H   LIG     1      -7.219   7.485  80.234  1.00  0.00     0.036 H 
HETATM   63  C   LIG     1      -5.703   4.821  78.609  1.00  0.00    -0.040 C 
HETATM   64  H   LIG     1      -7.641   5.742  78.467  1.00  0.00     0.082 H 
HETATM   65  C   LIG     1      -4.488   4.724  79.531  1.00  0.00    -0.051 C 
HETATM   66  H   LIG     1      -5.410   5.275  77.656  1.00  0.00     0.036 H 
HETATM   67  H   LIG     1      -6.042   3.801  78.387  1.00  0.00     0.036 H 
HETATM   68  H   LIG     1      -3.657   4.270  78.977  1.00  0.00     0.034 H 
HETATM   69  H   LIG     1      -4.728   4.032  80.348  1.00  0.00     0.034 H 
HETATM   70  H   LIG     1      -3.391   5.800  81.000  1.00  0.00     0.054 H 
BRANCH  60  71
HETATM   71  O   LIG     1      -7.405   4.875  80.299  1.00  0.00    -0.396 OA
HETATM   72  H   LIG     1      -8.237   5.311  80.551  1.00  0.00     0.210 HD
ENDBRANCH  60  71
ENDBRANCH  52  55
ENDBRANCH  48  51
ENDBRANCH  45  48
ENDBRANCH   4  45
TORSDOF 11
ENDMDL
MODEL 5
REMARK minimizedAffinity -6.97935104
REMARK minimizedRMSD -1
REMARK  11 active torsions:
REMARK  status: ('A' for Active; 'I' for Inactive)
REMARK    1  A    between atoms: N_1  and  S_2 
REMARK    2  A    between atoms: S_2  and  C_5 
REMARK    3  A    between atoms: C_8  and  C_9 
REMARK    4  A    between atoms: C_9  and  C_10 
REMARK    5  A    between atoms: C_14  and  N_15 
REMARK       I    between atoms: N_15  and  C_16 
REMARK       I    between atoms: C_16  and  N_18 
REMARK    6  A    between atoms: N_18  and  C_19 
REMARK    7  A    between atoms: C_22  and  C_23 
REMARK    8  A    between atoms: C_23  and  C_24 
REMARK    9  A    between atoms: C_24  and  N_25 
REMARK       I    between atoms: N_25  and  C_26 
REMARK   10  A    between atoms: C_26  and  C_28 
REMARK   11  A    between atoms: C_31  and  O_32 
ROOT
HETATM    1  C   LIG     1      -7.107   8.256  76.382  1.00  0.00     0.034 A 
HETATM    2  C   LIG     1      -7.220   9.616  76.638  1.00  0.00    -0.059 A 
HETATM    3  C   LIG     1      -6.132  10.302  77.174  1.00  0.00    -0.057 A 
HETATM    4  C   LIG     1      -4.951   9.605  77.425  1.00  0.00     0.035 A 
HETATM    5  N   LIG     1      -4.827   8.281  77.163  1.00  0.00    -0.264 NA
HETATM    6  C   LIG     1      -5.900   7.632  76.663  1.00  0.00     0.023 A 
HETATM    7  H   LIG     1      -8.154  10.136  76.449  1.00  0.00     0.086 H 
HETATM    8  H   LIG     1      -6.215  11.360  77.398  1.00  0.00     0.086 H 
HETATM    9  H   LIG     1      -5.752   6.569  76.495  1.00  0.00     0.117 H 
ENDROOT
BRANCH   1  10
HETATM   10  N   LIG     1      -8.210   7.581  75.820  1.00  0.00    -0.209 NA
HETATM   11  C   LIG     1      -8.597   7.874  74.517  1.00  0.00     0.303 C 
HETATM   12  N   LIG     1      -9.719   7.146  74.174  1.00  0.00    -0.313 N 
HETATM   13  O   LIG     1      -7.972   8.654  73.796  1.00  0.00    -0.253 OA
HETATM   14  H   LIG     1      -9.970   6.403  74.812  1.00  0.00     0.170 HD
HETATM   15  H   LIG     1      -9.022   7.611  76.425  1.00  0.00     0.138 HD
BRANCH  12  16
HETATM   16  C   LIG     1     -10.351   7.112  72.910  1.00  0.00     0.036 C 
HETATM   17  C   LIG     1      -9.946   6.245  71.896  1.00  0.00    -0.057 C 
HETATM   18  C   LIG     1     -10.719   6.101  70.752  1.00  0.00    -0.080 C 
HETATM   19  H   LIG     1      -9.055   5.630  71.975  1.00  0.00     0.086 H 
HETATM   20  C   LIG     1     -11.872   6.864  70.595  1.00  0.00    -0.076 C 
HETATM   21  H   LIG     1     -10.419   5.393  69.984  1.00  0.00     0.083 H 
HETATM   22  C   LIG     1     -12.181   7.904  71.483  1.00  0.00    -0.052 C 
HETATM   23  H   LIG     1     -12.485   6.685  69.716  1.00  0.00     0.084 H 
HETATM   24  C   LIG     1     -11.446   7.967  72.682  1.00  0.00    -0.051 C 
HETATM   25  H   LIG     1     -11.736   8.687  73.445  1.00  0.00     0.087 H 
BRANCH  22  26
HETATM   26  C   LIG     1     -13.298   8.903  71.193  1.00  0.00    -0.017 C 
HETATM   27  H   LIG     1     -13.795   8.567  70.274  1.00  0.00     0.047 H 
HETATM   28  H   LIG     1     -14.038   8.854  72.003  1.00  0.00     0.047 H 
BRANCH  26  29
HETATM   29  C   LIG     1     -12.925  10.385  71.024  1.00  0.00    -0.054 A 
HETATM   30  C   LIG     1     -12.080  10.859  70.010  1.00  0.00    -0.075 A 
HETATM   31  C   LIG     1     -11.884  12.225  69.793  1.00  0.00    -0.060 A 
HETATM   32  H   LIG     1     -11.573  10.174  69.335  1.00  0.00     0.084 H 
HETATM   33  C   LIG     1     -12.442  13.147  70.675  1.00  0.00     0.074 A 
HETATM   34  H   LIG     1     -11.301  12.521  68.926  1.00  0.00     0.085 H 
HETATM   35  C   LIG     1     -13.197  12.706  71.757  1.00  0.00    -0.060 A 
HETATM   36  C   LIG     1     -13.444  11.337  71.921  1.00  0.00    -0.075 A 
HETATM   37  H   LIG     1     -13.606  13.427  72.456  1.00  0.00     0.085 H 
HETATM   38  H   LIG     1     -14.048  11.010  72.763  1.00  0.00     0.084 H 
BRANCH  33  39
HETATM   39  S   LIG     1     -12.185  14.881  70.434  1.00  0.00     0.239 S 
HETATM   40  O   LIG     1     -11.622  15.059  69.113  1.00  0.00    -0.206 OA
HETATM   41  O   LIG     1     -11.541  15.428  71.609  1.00  0.00    -0.206 OA
BRANCH  39  42
HETATM   42  N   LIG     1     -13.765  15.485  70.437  1.00  0.00    -0.225 NA
HETATM   43  H   LIG     1     -14.068  15.913  69.558  1.00  0.00     0.136 HD
HETATM   44  H   LIG     1     -13.926  16.096  71.246  1.00  0.00     0.136 HD
ENDBRANCH  39  42
ENDBRANCH  33  39
ENDBRANCH  26  29
ENDBRANCH  22  26
ENDBRANCH  12  16
ENDBRANCH   1  10
BRANCH   4  45
HETATM   45  C   LIG     1      -3.767  10.321  78.028  1.00  0.00    -0.010 C 
HETATM   46  H   LIG     1      -3.769  10.151  79.111  1.00  0.00     0.044 H 
HETATM   47  H   LIG     1      -3.885  11.400  77.869  1.00  0.00     0.044 H 
BRANCH  45  48
HETATM   48  C   LIG     1      -2.429   9.857  77.445  1.00  0.00     0.000 C 
HETATM   49  H   LIG     1      -2.125   8.902  77.892  1.00  0.00     0.064 H 
HETATM   50  H   LIG     1      -1.637  10.587  77.652  1.00  0.00     0.064 H 
BRANCH  48  51
HETATM   51  N   LIG     1      -2.479   9.675  76.005  1.00  0.00    -0.360 N 
HETATM   52  C   LIG     1      -1.963   8.533  75.420  1.00  0.00     0.221 C 
HETATM   53  O   LIG     1      -1.428   7.634  76.059  1.00  0.00    -0.273 OA
HETATM   54  H   LIG     1      -2.691  10.468  75.414  1.00  0.00     0.162 HD
BRANCH  52  55
HETATM   55  C   LIG     1      -2.103   8.515  73.898  1.00  0.00     0.024 C 
HETATM   56  C   LIG     1      -2.432   7.110  73.385  1.00  0.00    -0.051 C 
HETATM   57  C   LIG     1      -3.910   6.741  73.531  1.00  0.00    -0.040 C 
HETATM   58  H   LIG     1      -1.824   6.355  73.901  1.00  0.00     0.034 H 
HETATM   59  H   LIG     1      -2.159   7.056  72.324  1.00  0.00     0.034 H 
HETATM   60  C   LIG     1      -4.835   7.790  72.921  1.00  0.00     0.035 C 
HETATM   61  H   LIG     1      -4.154   6.609  74.590  1.00  0.00     0.036 H 
HETATM   62  H   LIG     1      -4.073   5.775  73.035  1.00  0.00     0.036 H 
HETATM   63  C   LIG     1      -4.560   9.181  73.479  1.00  0.00    -0.040 C 
HETATM   64  H   LIG     1      -5.881   7.525  73.109  1.00  0.00     0.082 H 
HETATM   65  C   LIG     1      -3.086   9.580  73.396  1.00  0.00    -0.051 C 
HETATM   66  H   LIG     1      -4.897   9.227  74.520  1.00  0.00     0.036 H 
HETATM   67  H   LIG     1      -5.143   9.924  72.920  1.00  0.00     0.036 H 
HETATM   68  H   LIG     1      -2.940  10.518  73.945  1.00  0.00     0.034 H 
HETATM   69  H   LIG     1      -2.845   9.795  72.347  1.00  0.00     0.034 H 
HETATM   70  H   LIG     1      -1.115   8.793  73.504  1.00  0.00     0.054 H 
BRANCH  60  71
HETATM   71  O   LIG     1      -4.653   7.819  71.506  1.00  0.00    -0.396 OA
HETATM   72  H   LIG     1      -5.004   6.983  71.154  1.00  0.00     0.210 HD
ENDBRANCH  60  71
ENDBRANCH  52  55
ENDBRANCH  48  51
ENDBRANCH  45  48
ENDBRANCH   4  45
TORSDOF 11
ENDMDL
MODEL 6
REMARK minimizedAffinity -6.38521767
REMARK minimizedRMSD -1
REMARK  11 active torsions:
REMARK  status: ('A' for Active; 'I' for Inactive)
REMARK    1  A    between atoms: N_1  and  S_2 
REMARK    2  A    between atoms: S_2  and  C_5 
REMARK    3  A    between atoms: C_8  and  C_9 
REMARK    4  A    between atoms: C_9  and  C_10 
REMARK    5  A    between atoms: C_14  and  N_15 
REMARK       I    between atoms: N_15  and  C_16 
REMARK       I    between atoms: C_16  and  N_18 
REMARK    6  A    between atoms: N_18  and  C_19 
REMARK    7  A    between atoms: C_22  and  C_23 
REMARK    8  A    between atoms: C_23  and  C_24 
REMARK    9  A    between atoms: C_24  and  N_25 
REMARK       I    between atoms: N_25  and  C_26 
REMARK   10  A    between atoms: C_26  and  C_28 
REMARK   11  A    between atoms: C_31  and  O_32 
ROOT
HETATM    1  C   LIG     1      -5.444  13.049  74.972  1.00  0.00     0.034 A 
HETATM    2  C   LIG     1      -6.593  12.794  75.708  1.00  0.00    -0.059 A 
HETATM    3  C   LIG     1      -6.603  11.734  76.612  1.00  0.00    -0.057 A 
HETATM    4  C   LIG     1      -5.450  10.966  76.764  1.00  0.00     0.035 A 
HETATM    5  N   LIG     1      -4.318  11.218  76.063  1.00  0.00    -0.264 NA
HETATM    6  C   LIG     1      -4.337  12.237  75.177  1.00  0.00     0.023 A 
HETATM    7  H   LIG     1      -7.485  13.396  75.562  1.00  0.00     0.086 H 
HETATM    8  H   LIG     1      -7.502  11.512  77.177  1.00  0.00     0.086 H 
HETATM    9  H   LIG     1      -3.413  12.379  74.625  1.00  0.00     0.117 H 
ENDROOT
BRANCH   1  10
HETATM   10  N   LIG     1      -5.443  14.138  74.077  1.00  0.00    -0.209 NA
HETATM   11  C   LIG     1      -5.491  13.896  72.708  1.00  0.00     0.303 C 
HETATM   12  N   LIG     1      -5.433  15.085  72.008  1.00  0.00    -0.313 N 
HETATM   13  O   LIG     1      -5.607  12.764  72.235  1.00  0.00    -0.253 OA
HETATM   14  H   LIG     1      -5.553  15.924  72.559  1.00  0.00     0.170 HD
HETATM   15  H   LIG     1      -4.695  14.792  74.274  1.00  0.00     0.138 HD
BRANCH  12  16
HETATM   16  C   LIG     1      -5.542  15.248  70.608  1.00  0.00     0.036 C 
HETATM   17  C   LIG     1      -4.489  15.720  69.826  1.00  0.00    -0.057 C 
HETATM   18  C   LIG     1      -4.572  15.670  68.442  1.00  0.00    -0.080 C 
HETATM   19  H   LIG     1      -3.567  16.097  70.256  1.00  0.00     0.086 H 
HETATM   20  C   LIG     1      -5.730  15.196  67.834  1.00  0.00    -0.076 C 
HETATM   21  H   LIG     1      -3.730  16.001  67.839  1.00  0.00     0.083 H 
HETATM   22  C   LIG     1      -6.886  14.932  68.581  1.00  0.00    -0.052 C 
HETATM   23  H   LIG     1      -5.739  15.114  66.750  1.00  0.00     0.084 H 
HETATM   24  C   LIG     1      -6.753  14.892  69.982  1.00  0.00    -0.051 C 
HETATM   25  H   LIG     1      -7.600  14.575  70.586  1.00  0.00     0.087 H 
BRANCH  22  26
HETATM   26  C   LIG     1      -8.229  14.650  67.912  1.00  0.00    -0.017 C 
HETATM   27  H   LIG     1      -8.326  15.362  67.081  1.00  0.00     0.047 H 
HETATM   28  H   LIG     1      -8.206  13.642  67.478  1.00  0.00     0.047 H 
BRANCH  26  29
HETATM   29  C   LIG     1      -9.502  14.734  68.769  1.00  0.00    -0.054 A 
HETATM   30  C   LIG     1     -10.404  13.671  68.922  1.00  0.00    -0.075 A 
HETATM   31  C   LIG     1     -11.466  13.730  69.826  1.00  0.00    -0.060 A 
HETATM   32  H   LIG     1     -10.283  12.748  68.360  1.00  0.00     0.084 H 
HETATM   33  C   LIG     1     -11.718  14.915  70.513  1.00  0.00     0.074 A 
HETATM   34  H   LIG     1     -12.061  12.832  69.967  1.00  0.00     0.085 H 
HETATM   35  C   LIG     1     -10.908  16.026  70.304  1.00  0.00    -0.060 A 
HETATM   36  C   LIG     1      -9.803  15.930  69.447  1.00  0.00    -0.075 A 
HETATM   37  H   LIG     1     -11.125  16.955  70.820  1.00  0.00     0.085 H 
HETATM   38  H   LIG     1      -9.171  16.803  69.306  1.00  0.00     0.084 H 
BRANCH  33  39
HETATM   39  S   LIG     1     -13.075  15.020  71.644  1.00  0.00     0.239 S 
HETATM   40  O   LIG     1     -12.776  16.075  72.587  1.00  0.00    -0.206 OA
HETATM   41  O   LIG     1     -13.423  13.687  72.086  1.00  0.00    -0.206 OA
BRANCH  39  42
HETATM   42  N   LIG     1     -14.340  15.531  70.642  1.00  0.00    -0.225 NA
HETATM   43  H   LIG     1     -14.727  16.451  70.867  1.00  0.00     0.136 HD
HETATM   44  H   LIG     1     -15.066  14.809  70.567  1.00  0.00     0.136 HD
ENDBRANCH  39  42
ENDBRANCH  33  39
ENDBRANCH  26  29
ENDBRANCH  22  26
ENDBRANCH  12  16
ENDBRANCH   1  10
BRANCH   4  45
HETATM   45  C   LIG     1      -5.443   9.797  77.720  1.00  0.00    -0.010 C 
HETATM   46  H   LIG     1      -5.216   8.885  77.156  1.00  0.00     0.044 H 
HETATM   47  H   LIG     1      -6.450   9.675  78.140  1.00  0.00     0.044 H 
BRANCH  45  48
HETATM   48  C   LIG     1      -4.428   9.959  78.854  1.00  0.00     0.000 C 
HETATM   49  H   LIG     1      -3.534   9.353  78.659  1.00  0.00     0.064 H 
HETATM   50  H   LIG     1      -4.851   9.627  79.809  1.00  0.00     0.064 H 
BRANCH  48  51
HETATM   51  N   LIG     1      -3.999  11.336  79.029  1.00  0.00    -0.360 N 
HETATM   52  C   LIG     1      -3.208  11.696  80.106  1.00  0.00     0.221 C 
HETATM   53  O   LIG     1      -2.846  10.905  80.968  1.00  0.00    -0.273 OA
HETATM   54  H   LIG     1      -4.449  12.065  78.493  1.00  0.00     0.162 HD
BRANCH  52  55
HETATM   55  C   LIG     1      -2.856  13.184  80.126  1.00  0.00     0.024 C 
HETATM   56  C   LIG     1      -1.459  13.417  80.710  1.00  0.00    -0.051 C 
HETATM   57  C   LIG     1      -0.332  13.159  79.707  1.00  0.00    -0.040 C 
HETATM   58  H   LIG     1      -1.298  12.791  81.596  1.00  0.00     0.034 H 
HETATM   59  H   LIG     1      -1.396  14.459  81.049  1.00  0.00     0.034 H 
HETATM   60  C   LIG     1      -0.528  13.923  78.400  1.00  0.00     0.035 C 
HETATM   61  H   LIG     1      -0.264  12.086  79.497  1.00  0.00     0.036 H 
HETATM   62  H   LIG     1       0.615  13.462  80.171  1.00  0.00     0.036 H 
HETATM   63  C   LIG     1      -1.890  13.641  77.778  1.00  0.00    -0.040 C 
HETATM   64  H   LIG     1       0.258  13.655  77.686  1.00  0.00     0.082 H 
HETATM   65  C   LIG     1      -3.049  13.843  78.755  1.00  0.00    -0.051 C 
HETATM   66  H   LIG     1      -1.907  12.616  77.392  1.00  0.00     0.036 H 
HETATM   67  H   LIG     1      -2.049  14.308  76.922  1.00  0.00     0.036 H 
HETATM   68  H   LIG     1      -3.974  13.482  78.289  1.00  0.00     0.034 H 
HETATM   69  H   LIG     1      -3.184  14.920  78.913  1.00  0.00     0.034 H 
HETATM   70  H   LIG     1      -3.584  13.653  80.803  1.00  0.00     0.054 H 
BRANCH  60  71
HETATM   71  O   LIG     1      -0.419  15.323  78.648  1.00  0.00    -0.396 OA
HETATM   72  H   LIG     1       0.511  15.503  78.872  1.00  0.00     0.210 HD
ENDBRANCH  60  71
ENDBRANCH  52  55
ENDBRANCH  48  51
ENDBRANCH  45  48
ENDBRANCH   4  45
TORSDOF 11
ENDMDL
MODEL 7
REMARK minimizedAffinity -5.70657253
REMARK minimizedRMSD -1
REMARK  11 active torsions:
REMARK  status: ('A' for Active; 'I' for Inactive)
REMARK    1  A    between atoms: N_1  and  S_2 
REMARK    2  A    between atoms: S_2  and  C_5 
REMARK    3  A    between atoms: C_8  and  C_9 
REMARK    4  A    between atoms: C_9  and  C_10 
REMARK    5  A    between atoms: C_14  and  N_15 
REMARK       I    between atoms: N_15  and  C_16 
REMARK       I    between atoms: C_16  and  N_18 
REMARK    6  A    between atoms: N_18  and  C_19 
REMARK    7  A    between atoms: C_22  and  C_23 
REMARK    8  A    between atoms: C_23  and  C_24 
REMARK    9  A    between atoms: C_24  and  N_25 
REMARK       I    between atoms: N_25  and  C_26 
REMARK   10  A    between atoms: C_26  and  C_28 
REMARK   11  A    between atoms: C_31  and  O_32 
ROOT
HETATM    1  C   LIG     1      -5.469  12.857  75.331  1.00  0.00     0.034 A 
HETATM    2  C   LIG     1      -6.680  12.511  75.917  1.00  0.00    -0.059 A 
HETATM    3  C   LIG     1      -6.730  11.430  76.795  1.00  0.00    -0.057 A 
HETATM    4  C   LIG     1      -5.555  10.734  77.075  1.00  0.00     0.035 A 
HETATM    5  N   LIG     1      -4.365  11.075  76.523  1.00  0.00    -0.264 NA
HETATM    6  C   LIG     1      -4.344  12.112  75.658  1.00  0.00     0.023 A 
HETATM    7  H   LIG     1      -7.586  13.058  75.672  1.00  0.00     0.086 H 
HETATM    8  H   LIG     1      -7.674  11.138  77.242  1.00  0.00     0.086 H 
HETATM    9  H   LIG     1      -3.371  12.326  75.226  1.00  0.00     0.117 H 
ENDROOT
BRANCH   1  10
HETATM   10  N   LIG     1      -5.431  13.965  74.461  1.00  0.00    -0.209 NA
HETATM   11  C   LIG     1      -5.057  13.778  73.135  1.00  0.00     0.303 C 
HETATM   12  N   LIG     1      -5.037  14.986  72.467  1.00  0.00    -0.313 N 
HETATM   13  O   LIG     1      -4.822  12.666  72.659  1.00  0.00    -0.253 OA
HETATM   14  H   LIG     1      -5.461  15.763  72.955  1.00  0.00     0.170 HD
HETATM   15  H   LIG     1      -4.904  14.737  74.851  1.00  0.00     0.138 HD
BRANCH  12  16
HETATM   16  C   LIG     1      -4.789  15.187  71.089  1.00  0.00     0.036 C 
HETATM   17  C   LIG     1      -4.060  16.275  70.613  1.00  0.00    -0.057 C 
HETATM   18  C   LIG     1      -3.669  16.322  69.282  1.00  0.00    -0.080 C 
HETATM   19  H   LIG     1      -3.741  17.089  71.254  1.00  0.00     0.086 H 
HETATM   20  C   LIG     1      -4.050  15.307  68.411  1.00  0.00    -0.076 C 
HETATM   21  H   LIG     1      -3.065  17.154  68.926  1.00  0.00     0.083 H 
HETATM   22  C   LIG     1      -4.970  14.323  68.801  1.00  0.00    -0.052 C 
HETATM   23  H   LIG     1      -3.677  15.344  67.391  1.00  0.00     0.084 H 
HETATM   24  C   LIG     1      -5.275  14.234  70.173  1.00  0.00    -0.051 C 
HETATM   25  H   LIG     1      -5.892  13.410  70.526  1.00  0.00     0.087 H 
BRANCH  22  26
HETATM   26  C   LIG     1      -5.585  13.353  67.796  1.00  0.00    -0.017 C 
HETATM   27  H   LIG     1      -5.393  13.766  66.797  1.00  0.00     0.047 H 
HETATM   28  H   LIG     1      -5.057  12.393  67.859  1.00  0.00     0.047 H 
BRANCH  26  29
HETATM   29  C   LIG     1      -7.086  13.041  67.908  1.00  0.00    -0.054 A 
HETATM   30  C   LIG     1      -7.590  11.783  68.269  1.00  0.00    -0.075 A 
HETATM   31  C   LIG     1      -8.950  11.576  68.509  1.00  0.00    -0.060 A 
HETATM   32  H   LIG     1      -6.928  10.931  68.405  1.00  0.00     0.084 H 
HETATM   33  C   LIG     1      -9.854  12.608  68.272  1.00  0.00     0.074 A 
HETATM   34  H   LIG     1      -9.255  10.603  68.885  1.00  0.00     0.085 H 
HETATM   35  C   LIG     1      -9.400  13.838  67.809  1.00  0.00    -0.060 A 
HETATM   36  C   LIG     1      -8.025  14.054  67.640  1.00  0.00    -0.075 A 
HETATM   37  H   LIG     1     -10.111  14.630  67.600  1.00  0.00     0.085 H 
HETATM   38  H   LIG     1      -7.686  15.026  67.293  1.00  0.00     0.084 H 
BRANCH  33  39
HETATM   39  S   LIG     1     -11.585  12.358  68.545  1.00  0.00     0.239 S 
HETATM   40  O   LIG     1     -11.916  11.036  68.061  1.00  0.00    -0.206 OA
HETATM   41  O   LIG     1     -12.306  13.529  68.094  1.00  0.00    -0.206 OA
BRANCH  39  42
HETATM   42  N   LIG     1     -11.688  12.361  70.233  1.00  0.00    -0.225 NA
HETATM   43  H   LIG     1     -12.002  11.480  70.650  1.00  0.00     0.136 HD
HETATM   44  H   LIG     1     -12.228  13.167  70.569  1.00  0.00     0.136 HD
ENDBRANCH  39  42
ENDBRANCH  33  39
ENDBRANCH  26  29
ENDBRANCH  22  26
ENDBRANCH  12  16
ENDBRANCH   1  10
BRANCH   4  45
HETATM   45  C   LIG     1      -5.587   9.546  78.006  1.00  0.00    -0.010 C 
HETATM   46  H   LIG     1      -5.252   8.659  77.454  1.00  0.00     0.044 H 
HETATM   47  H   LIG     1      -6.625   9.362  78.313  1.00  0.00     0.044 H 
BRANCH  45  48
HETATM   48  C   LIG     1      -4.708   9.733  79.245  1.00  0.00     0.000 C 
HETATM   49  H   LIG     1      -3.847   9.054  79.211  1.00  0.00     0.064 H 
HETATM   50  H   LIG     1      -5.268   9.512  80.161  1.00  0.00     0.064 H 
BRANCH  48  51
HETATM   51  N   LIG     1      -4.198  11.087  79.370  1.00  0.00    -0.360 N 
HETATM   52  C   LIG     1      -3.947  11.634  80.616  1.00  0.00     0.221 C 
HETATM   53  O   LIG     1      -4.151  11.036  81.665  1.00  0.00    -0.273 OA
HETATM   54  H   LIG     1      -4.230  11.702  78.568  1.00  0.00     0.162 HD
BRANCH  52  55
HETATM   55  C   LIG     1      -3.416  13.066  80.552  1.00  0.00     0.024 C 
HETATM   56  C   LIG     1      -2.135  13.222  81.377  1.00  0.00    -0.051 C 
HETATM   57  C   LIG     1      -0.882  12.719  80.655  1.00  0.00    -0.040 C 
HETATM   58  H   LIG     1      -2.225  12.700  82.338  1.00  0.00     0.034 H 
HETATM   59  H   LIG     1      -2.002  14.285  81.613  1.00  0.00     0.034 H 
HETATM   60  C   LIG     1      -0.729  13.327  79.263  1.00  0.00     0.035 C 
HETATM   61  H   LIG     1      -0.916  11.627  80.576  1.00  0.00     0.036 H 
HETATM   62  H   LIG     1      -0.008  12.976  81.266  1.00  0.00     0.036 H 
HETATM   63  C   LIG     1      -1.975  13.115  78.412  1.00  0.00    -0.040 C 
HETATM   64  H   LIG     1       0.136  12.888  78.754  1.00  0.00     0.082 H 
HETATM   65  C   LIG     1      -3.260  13.562  79.109  1.00  0.00    -0.051 C 
HETATM   66  H   LIG     1      -2.051  12.056  78.139  1.00  0.00     0.036 H 
HETATM   67  H   LIG     1      -1.883  13.681  77.477  1.00  0.00     0.036 H 
HETATM   68  H   LIG     1      -4.120  13.245  78.506  1.00  0.00     0.034 H 
HETATM   69  H   LIG     1      -3.282  14.658  79.123  1.00  0.00     0.034 H 
HETATM   70  H   LIG     1      -4.191  13.693  81.015  1.00  0.00     0.054 H 
BRANCH  60  71
HETATM   71  O   LIG     1      -0.488  14.728  79.381  1.00  0.00    -0.396 OA
HETATM   72  H   LIG     1       0.398  14.835  79.768  1.00  0.00     0.210 HD
ENDBRANCH  60  71
ENDBRANCH  52  55
ENDBRANCH  48  51
ENDBRANCH  45  48
ENDBRANCH   4  45
TORSDOF 11
ENDMDL
