MODEL 1
REMARK minimizedAffinity -8.45897484
REMARK minimizedRMSD -1
REMARK  14 active torsions:
REMARK  status: ('A' for Active; 'I' for Inactive)
REMARK    1  A    between atoms: N_1  and  S_2 
REMARK    2  A    between atoms: S_2  and  C_5 
REMARK    3  A    between atoms: C_8  and  C_9 
REMARK    4  A    between atoms: C_9  and  C_10 
REMARK    5  A    between atoms: C_14  and  N_15 
REMARK       I    between atoms: N_15  and  C_16 
REMARK    6  A    between atoms: C_16  and  C_18 
REMARK    7  A    between atoms: C_18  and  C_19 
REMARK    8  A    between atoms: C_18  and  C_21 
REMARK    9  A    between atoms: C_19  and  S_20 
REMARK   10  A    between atoms: C_23  and  C_24 
REMARK   11  A    between atoms: C_24  and  C_25 
REMARK   12  A    between atoms: C_25  and  N_26 
REMARK       I    between atoms: N_26  and  C_27 
REMARK   13  A    between atoms: C_27  and  C_29 
REMARK   14  A    between atoms: C_32  and  O_33 
ROOT
HETATM    1  C   LIG     1      -8.410   9.700  62.140  1.00  0.00     0.058 C 
HETATM    2  H   LIG     1      -8.177   8.695  62.529  1.00  0.00     0.063 H 
ENDROOT
BRANCH   1   3
HETATM    3  C   LIG     1      -9.373  10.278  63.186  1.00  0.00     0.231 C 
HETATM    4  N   LIG     1     -10.021  11.445  62.801  1.00  0.00    -0.327 N 
HETATM    5  H   LIG     1     -10.135  11.609  61.808  1.00  0.00     0.169 HD
HETATM    6  O   LIG     1      -9.517   9.749  64.288  1.00  0.00    -0.272 OA
BRANCH   4   7
HETATM    7  C   LIG     1     -10.853  12.186  63.667  1.00  0.00     0.035 A 
HETATM    8  C   LIG     1     -12.229  12.161  63.452  1.00  0.00    -0.057 A 
HETATM    9  C   LIG     1     -13.091  12.825  64.329  1.00  0.00    -0.080 A 
HETATM   10  H   LIG     1     -12.650  11.578  62.640  1.00  0.00     0.086 H 
HETATM   11  C   LIG     1     -12.574  13.590  65.373  1.00  0.00    -0.076 A 
HETATM   12  H   LIG     1     -14.167  12.748  64.203  1.00  0.00     0.083 H 
HETATM   13  C   LIG     1     -11.190  13.696  65.554  1.00  0.00    -0.052 A 
HETATM   14  H   LIG     1     -13.257  14.118  66.036  1.00  0.00     0.084 H 
HETATM   15  C   LIG     1     -10.339  12.959  64.713  1.00  0.00    -0.051 A 
HETATM   16  H   LIG     1      -9.263  13.024  64.864  1.00  0.00     0.087 H 
BRANCH  13  17
HETATM   17  C   LIG     1     -10.612  14.586  66.634  1.00  0.00    -0.017 C 
HETATM   18  H   LIG     1      -9.538  14.373  66.713  1.00  0.00     0.047 H 
HETATM   19  H   LIG     1     -10.683  15.641  66.340  1.00  0.00     0.047 H 
BRANCH  17  20
HETATM   20  C   LIG     1     -11.283  14.436  67.985  1.00  0.00    -0.054 A 
HETATM   21  C   LIG     1     -11.824  15.556  68.632  1.00  0.00    -0.075 A 
HETATM   22  C   LIG     1     -12.445  15.428  69.876  1.00  0.00    -0.060 A 
HETATM   23  H   LIG     1     -11.769  16.541  68.172  1.00  0.00     0.084 H 
HETATM   24  C   LIG     1     -12.527  14.171  70.484  1.00  0.00     0.074 A 
HETATM   25  H   LIG     1     -12.869  16.306  70.356  1.00  0.00     0.085 H 
HETATM   26  C   LIG     1     -12.007  13.043  69.851  1.00  0.00    -0.060 A 
HETATM   27  C   LIG     1     -11.388  13.177  68.603  1.00  0.00    -0.075 A 
HETATM   28  H   LIG     1     -12.081  12.060  70.313  1.00  0.00     0.085 H 
HETATM   29  H   LIG     1     -10.983  12.294  68.111  1.00  0.00     0.084 H 
BRANCH  24  30
HETATM   30  S   LIG     1     -13.337  14.032  72.051  1.00  0.00     0.239 S 
HETATM   31  O   LIG     1     -12.608  14.833  73.015  1.00  0.00    -0.206 OA
HETATM   32  O   LIG     1     -13.689  12.662  72.294  1.00  0.00    -0.206 OA
BRANCH  30  33
HETATM   33  N   LIG     1     -14.796  14.828  71.804  1.00  0.00    -0.225 NA
HETATM   34  H   LIG     1     -14.855  15.630  72.433  1.00  0.00     0.136 HD
HETATM   35  H   LIG     1     -15.561  14.162  71.934  1.00  0.00     0.136 HD
ENDBRANCH  30  33
ENDBRANCH  24  30
ENDBRANCH  17  20
ENDBRANCH  13  17
ENDBRANCH   4   7
ENDBRANCH   1   3
BRANCH   1  36
HETATM   36  C   LIG     1      -9.105   9.445  60.780  1.00  0.00    -0.011 C 
HETATM   37  H   LIG     1      -8.421   9.724  59.970  1.00  0.00     0.050 H 
HETATM   38  H   LIG     1      -9.986  10.088  60.692  1.00  0.00     0.050 H 
BRANCH  36  39
HETATM   39  S   LIG     1      -9.661   7.742  60.409  1.00  0.00    -0.181 SA
HETATM   40  H   LIG     1      -8.444   7.172  60.508  1.00  0.00     0.101 HD
ENDBRANCH  36  39
ENDBRANCH   1  36
BRANCH   1  41
HETATM   41  C   LIG     1      -7.092  10.446  62.025  1.00  0.00    -0.026 A 
HETATM   42  C   LIG     1      -6.838  11.375  61.010  1.00  0.00    -0.067 A 
HETATM   43  C   LIG     1      -5.618  12.057  60.964  1.00  0.00    -0.038 A 
HETATM   44  H   LIG     1      -7.589  11.572  60.249  1.00  0.00     0.085 H 
HETATM   45  C   LIG     1      -4.683  11.766  61.950  1.00  0.00     0.008 A 
HETATM   46  N   LIG     1      -4.893  10.891  62.952  1.00  0.00    -0.272 NA
HETATM   47  H   LIG     1      -3.712  12.254  61.969  1.00  0.00     0.115 H 
HETATM   48  C   LIG     1      -6.079  10.246  62.963  1.00  0.00     0.009 A 
HETATM   49  H   LIG     1      -6.187   9.550  63.792  1.00  0.00     0.115 H 
BRANCH  43  50
HETATM   50  C   LIG     1      -5.312  13.064  59.886  1.00  0.00    -0.025 C 
HETATM   51  H   LIG     1      -5.364  14.080  60.296  1.00  0.00     0.042 H 
HETATM   52  H   LIG     1      -6.098  12.990  59.124  1.00  0.00     0.042 H 
BRANCH  50  53
HETATM   53  C   LIG     1      -3.944  12.858  59.222  1.00  0.00    -0.001 C 
HETATM   54  H   LIG     1      -3.153  13.154  59.918  1.00  0.00     0.064 H 
HETATM   55  H   LIG     1      -3.838  13.481  58.327  1.00  0.00     0.064 H 
BRANCH  53  56
HETATM   56  N   LIG     1      -3.727  11.487  58.803  1.00  0.00    -0.360 N 
HETATM   57  C   LIG     1      -4.348  10.964  57.687  1.00  0.00     0.221 C 
HETATM   58  O   LIG     1      -5.035  11.642  56.932  1.00  0.00    -0.273 OA
HETATM   59  H   LIG     1      -3.310  10.851  59.471  1.00  0.00     0.162 HD
BRANCH  57  60
HETATM   60  C   LIG     1      -4.125   9.463  57.497  1.00  0.00     0.024 C 
HETATM   61  C   LIG     1      -3.445   8.819  58.717  1.00  0.00    -0.051 C 
HETATM   62  C   LIG     1      -4.393   8.636  59.905  1.00  0.00    -0.040 C 
HETATM   63  H   LIG     1      -2.583   9.417  59.037  1.00  0.00     0.034 H 
HETATM   64  H   LIG     1      -3.047   7.838  58.428  1.00  0.00     0.034 H 
HETATM   65  C   LIG     1      -5.674   7.901  59.524  1.00  0.00     0.035 C 
HETATM   66  H   LIG     1      -4.649   9.615  60.325  1.00  0.00     0.036 H 
HETATM   67  H   LIG     1      -3.864   8.079  60.687  1.00  0.00     0.036 H 
HETATM   68  C   LIG     1      -6.365   8.541  58.322  1.00  0.00    -0.040 C 
HETATM   69  H   LIG     1      -6.360   7.911  60.378  1.00  0.00     0.082 H 
HETATM   70  C   LIG     1      -5.426   8.740  57.134  1.00  0.00    -0.051 C 
HETATM   71  H   LIG     1      -6.782   9.512  58.615  1.00  0.00     0.036 H 
HETATM   72  H   LIG     1      -7.202   7.912  57.995  1.00  0.00     0.036 H 
HETATM   73  H   LIG     1      -5.977   9.273  56.351  1.00  0.00     0.034 H 
HETATM   74  H   LIG     1      -5.168   7.764  56.711  1.00  0.00     0.034 H 
HETATM   75  H   LIG     1      -3.429   9.372  56.649  1.00  0.00     0.054 H 
BRANCH  65  76
HETATM   76  O   LIG     1      -5.378   6.529  59.268  1.00  0.00    -0.396 OA
HETATM   77  H   LIG     1      -5.146   6.419  58.332  1.00  0.00     0.210 HD
ENDBRANCH  65  76
ENDBRANCH  57  60
ENDBRANCH  53  56
ENDBRANCH  50  53
ENDBRANCH  43  50
ENDBRANCH   1  41
TORSDOF 14
ENDMDL
MODEL 2
REMARK minimizedAffinity -8.45566273
REMARK minimizedRMSD -1
REMARK  14 active torsions:
REMARK  status: ('A' for Active; 'I' for Inactive)
REMARK    1  A    between atoms: N_1  and  S_2 
REMARK    2  A    between atoms: S_2  and  C_5 
REMARK    3  A    between atoms: C_8  and  C_9 
REMARK    4  A    between atoms: C_9  and  C_10 
REMARK    5  A    between atoms: C_14  and  N_15 
REMARK       I    between atoms: N_15  and  C_16 
REMARK    6  A    between atoms: C_16  and  C_18 
REMARK    7  A    between atoms: C_18  and  C_19 
REMARK    8  A    between atoms: C_18  and  C_21 
REMARK    9  A    between atoms: C_19  and  S_20 
REMARK   10  A    between atoms: C_23  and  C_24 
REMARK   11  A    between atoms: C_24  and  C_25 
REMARK   12  A    between atoms: C_25  and  N_26 
REMARK       I    between atoms: N_26  and  C_27 
REMARK   13  A    between atoms: C_27  and  C_29 
REMARK   14  A    between atoms: C_32  and  O_33 
ROOT
HETATM    1  C   LIG     1      -8.423   9.746  62.145  1.00  0.00     0.058 C 
HETATM    2  H   LIG     1      -8.183   8.740  62.527  1.00  0.00     0.063 H 
ENDROOT
BRANCH   1   3
HETATM    3  C   LIG     1      -9.358  10.325  63.216  1.00  0.00     0.231 C 
HETATM    4  N   LIG     1     -10.006  11.500  62.851  1.00  0.00    -0.327 N 
HETATM    5  H   LIG     1     -10.140  11.670  61.862  1.00  0.00     0.169 HD
HETATM    6  O   LIG     1      -9.482   9.792  64.317  1.00  0.00    -0.272 OA
BRANCH   4   7
HETATM    7  C   LIG     1     -10.813  12.242  63.739  1.00  0.00     0.035 A 
HETATM    8  C   LIG     1     -12.190  12.267  63.526  1.00  0.00    -0.057 A 
HETATM    9  C   LIG     1     -13.029  12.934  64.423  1.00  0.00    -0.080 A 
HETATM   10  H   LIG     1     -12.630  11.722  62.698  1.00  0.00     0.086 H 
HETATM   11  C   LIG     1     -12.487  13.652  65.487  1.00  0.00    -0.076 A 
HETATM   12  H   LIG     1     -14.107  12.895  64.296  1.00  0.00     0.083 H 
HETATM   13  C   LIG     1     -11.099  13.708  65.669  1.00  0.00    -0.052 A 
HETATM   14  H   LIG     1     -13.152  14.183  66.166  1.00  0.00     0.084 H 
HETATM   15  C   LIG     1     -10.274  12.968  64.806  1.00  0.00    -0.051 A 
HETATM   16  H   LIG     1      -9.196  12.994  64.956  1.00  0.00     0.087 H 
BRANCH  13  17
HETATM   17  C   LIG     1     -10.492  14.547  66.773  1.00  0.00    -0.017 C 
HETATM   18  H   LIG     1      -9.452  14.226  66.913  1.00  0.00     0.047 H 
HETATM   19  H   LIG     1     -10.436  15.600  66.466  1.00  0.00     0.047 H 
BRANCH  17  20
HETATM   20  C   LIG     1     -11.248  14.486  68.085  1.00  0.00    -0.054 A 
HETATM   21  C   LIG     1     -11.407  13.263  68.751  1.00  0.00    -0.075 A 
HETATM   22  C   LIG     1     -12.101  13.196  69.961  1.00  0.00    -0.060 A 
HETATM   23  H   LIG     1     -10.989  12.348  68.335  1.00  0.00     0.084 H 
HETATM   24  C   LIG     1     -12.646  14.361  70.513  1.00  0.00     0.074 A 
HETATM   25  H   LIG     1     -12.204  12.241  70.469  1.00  0.00     0.085 H 
HETATM   26  C   LIG     1     -12.487  15.589  69.872  1.00  0.00    -0.060 A 
HETATM   27  C   LIG     1     -11.788  15.650  68.662  1.00  0.00    -0.075 A 
HETATM   28  H   LIG     1     -12.895  16.501  70.305  1.00  0.00     0.085 H 
HETATM   29  H   LIG     1     -11.666  16.610  68.163  1.00  0.00     0.084 H 
BRANCH  24  30
HETATM   30  S   LIG     1     -13.503  14.254  72.057  1.00  0.00     0.239 S 
HETATM   31  O   LIG     1     -13.601  12.856  72.429  1.00  0.00    -0.206 OA
HETATM   32  O   LIG     1     -14.640  15.131  72.041  1.00  0.00    -0.206 OA
BRANCH  30  33
HETATM   33  N   LIG     1     -12.426  14.943  73.146  1.00  0.00    -0.225 NA
HETATM   34  H   LIG     1     -12.158  14.248  73.844  1.00  0.00     0.136 HD
HETATM   35  H   LIG     1     -12.859  15.774  73.557  1.00  0.00     0.136 HD
ENDBRANCH  30  33
ENDBRANCH  24  30
ENDBRANCH  17  20
ENDBRANCH  13  17
ENDBRANCH   4   7
ENDBRANCH   1   3
BRANCH   1  36
HETATM   36  C   LIG     1      -9.153   9.494  60.803  1.00  0.00    -0.011 C 
HETATM   37  H   LIG     1      -8.559   9.920  59.986  1.00  0.00     0.050 H 
HETATM   38  H   LIG     1     -10.116  10.014  60.805  1.00  0.00     0.050 H 
BRANCH  36  39
HETATM   39  S   LIG     1      -9.496   7.761  60.327  1.00  0.00    -0.181 SA
HETATM   40  H   LIG     1      -8.210   7.358  60.326  1.00  0.00     0.101 HD
ENDBRANCH  36  39
ENDBRANCH   1  36
BRANCH   1  41
HETATM   41  C   LIG     1      -7.107  10.489  61.998  1.00  0.00    -0.026 A 
HETATM   42  C   LIG     1      -6.808  11.279  60.882  1.00  0.00    -0.067 A 
HETATM   43  C   LIG     1      -5.592  11.966  60.808  1.00  0.00    -0.038 A 
HETATM   44  H   LIG     1      -7.521  11.363  60.065  1.00  0.00     0.085 H 
HETATM   45  C   LIG     1      -4.707  11.821  61.868  1.00  0.00     0.008 A 
HETATM   46  N   LIG     1      -4.962  11.083  62.966  1.00  0.00    -0.272 NA
HETATM   47  H   LIG     1      -3.742  12.321  61.871  1.00  0.00     0.115 H 
HETATM   48  C   LIG     1      -6.142  10.429  63.003  1.00  0.00     0.009 A 
HETATM   49  H   LIG     1      -6.287   9.847  63.911  1.00  0.00     0.115 H 
BRANCH  43  50
HETATM   50  C   LIG     1      -5.239  12.826  59.622  1.00  0.00    -0.025 C 
HETATM   51  H   LIG     1      -6.097  12.900  58.943  1.00  0.00     0.042 H 
HETATM   52  H   LIG     1      -4.440  12.320  59.066  1.00  0.00     0.042 H 
BRANCH  50  53
HETATM   53  C   LIG     1      -4.773  14.237  60.002  1.00  0.00    -0.001 C 
HETATM   54  H   LIG     1      -3.755  14.397  59.635  1.00  0.00     0.064 H 
HETATM   55  H   LIG     1      -4.750  14.369  61.090  1.00  0.00     0.064 H 
BRANCH  53  56
HETATM   56  N   LIG     1      -5.641  15.273  59.475  1.00  0.00    -0.360 N 
HETATM   57  C   LIG     1      -5.359  15.919  58.289  1.00  0.00     0.221 C 
HETATM   58  O   LIG     1      -4.424  15.597  57.564  1.00  0.00    -0.273 OA
HETATM   59  H   LIG     1      -6.320  15.682  60.104  1.00  0.00     0.162 HD
BRANCH  57  60
HETATM   60  C   LIG     1      -6.298  17.086  57.978  1.00  0.00     0.024 C 
HETATM   61  C   LIG     1      -5.762  18.421  58.522  1.00  0.00    -0.051 C 
HETATM   62  C   LIG     1      -4.607  18.988  57.693  1.00  0.00    -0.040 C 
HETATM   63  H   LIG     1      -5.431  18.307  59.563  1.00  0.00     0.034 H 
HETATM   64  H   LIG     1      -6.579  19.154  58.539  1.00  0.00     0.034 H 
HETATM   65  C   LIG     1      -4.945  19.084  56.208  1.00  0.00     0.035 C 
HETATM   66  H   LIG     1      -3.718  18.360  57.822  1.00  0.00     0.036 H 
HETATM   67  H   LIG     1      -4.357  19.982  58.081  1.00  0.00     0.036 H 
HETATM   68  C   LIG     1      -5.464  17.759  55.653  1.00  0.00    -0.040 C 
HETATM   69  H   LIG     1      -4.045  19.375  55.655  1.00  0.00     0.082 H 
HETATM   70  C   LIG     1      -6.609  17.177  56.480  1.00  0.00    -0.051 C 
HETATM   71  H   LIG     1      -4.644  17.033  55.617  1.00  0.00     0.036 H 
HETATM   72  H   LIG     1      -5.821  17.901  54.626  1.00  0.00     0.036 H 
HETATM   73  H   LIG     1      -6.865  16.196  56.063  1.00  0.00     0.034 H 
HETATM   74  H   LIG     1      -7.499  17.801  56.354  1.00  0.00     0.034 H 
HETATM   75  H   LIG     1      -7.233  16.866  58.514  1.00  0.00     0.054 H 
BRANCH  65  76
HETATM   76  O   LIG     1      -5.894  20.127  56.002  1.00  0.00    -0.396 OA
HETATM   77  H   LIG     1      -6.791  19.768  56.088  1.00  0.00     0.210 HD
ENDBRANCH  65  76
ENDBRANCH  57  60
ENDBRANCH  53  56
ENDBRANCH  50  53
ENDBRANCH  43  50
ENDBRANCH   1  41
TORSDOF 14
ENDMDL
MODEL 3
REMARK minimizedAffinity -7.11803818
REMARK minimizedRMSD -1
REMARK  14 active torsions:
REMARK  status: ('A' for Active; 'I' for Inactive)
REMARK    1  A    between atoms: N_1  and  S_2 
REMARK    2  A    between atoms: S_2  and  C_5 
REMARK    3  A    between atoms: C_8  and  C_9 
REMARK    4  A    between atoms: C_9  and  C_10 
REMARK    5  A    between atoms: C_14  and  N_15 
REMARK       I    between atoms: N_15  and  C_16 
REMARK    6  A    between atoms: C_16  and  C_18 
REMARK    7  A    between atoms: C_18  and  C_19 
REMARK    8  A    between atoms: C_18  and  C_21 
REMARK    9  A    between atoms: C_19  and  S_20 
REMARK   10  A    between atoms: C_23  and  C_24 
REMARK   11  A    between atoms: C_24  and  C_25 
REMARK   12  A    between atoms: C_25  and  N_26 
REMARK       I    between atoms: N_26  and  C_27 
REMARK   13  A    between atoms: C_27  and  C_29 
REMARK   14  A    between atoms: C_32  and  O_33 
ROOT
HETATM    1  C   LIG     1      -8.413   9.719  62.243  1.00  0.00     0.058 C 
HETATM    2  H   LIG     1      -8.195   8.746  62.711  1.00  0.00     0.063 H 
ENDROOT
BRANCH   1   3
HETATM    3  C   LIG     1      -9.384  10.384  63.229  1.00  0.00     0.231 C 
HETATM    4  N   LIG     1     -10.069  11.482  62.722  1.00  0.00    -0.327 N 
HETATM    5  H   LIG     1     -10.195  11.531  61.719  1.00  0.00     0.169 HD
HETATM    6  O   LIG     1      -9.504   9.979  64.384  1.00  0.00    -0.272 OA
BRANCH   4   7
HETATM    7  C   LIG     1     -10.915  12.293  63.509  1.00  0.00     0.035 A 
HETATM    8  C   LIG     1     -12.260  11.945  63.616  1.00  0.00    -0.057 A 
HETATM    9  C   LIG     1     -13.114  12.682  64.441  1.00  0.00    -0.080 A 
HETATM   10  H   LIG     1     -12.645  11.067  63.109  1.00  0.00     0.086 H 
HETATM   11  C   LIG     1     -12.647  13.822  65.092  1.00  0.00    -0.076 A 
HETATM   12  H   LIG     1     -14.146  12.371  64.578  1.00  0.00     0.083 H 
HETATM   13  C   LIG     1     -11.319  14.235  64.930  1.00  0.00    -0.052 A 
HETATM   14  H   LIG     1     -13.329  14.397  65.716  1.00  0.00     0.084 H 
HETATM   15  C   LIG     1     -10.452  13.440  64.161  1.00  0.00    -0.051 A 
HETATM   16  H   LIG     1      -9.414  13.748  64.049  1.00  0.00     0.087 H 
BRANCH  13  17
HETATM   17  C   LIG     1     -10.818  15.513  65.567  1.00  0.00    -0.017 C 
HETATM   18  H   LIG     1     -10.549  16.212  64.765  1.00  0.00     0.047 H 
HETATM   19  H   LIG     1     -11.624  16.004  66.128  1.00  0.00     0.047 H 
BRANCH  17  20
HETATM   20  C   LIG     1      -9.650  15.317  66.514  1.00  0.00    -0.054 A 
HETATM   21  C   LIG     1      -9.736  14.381  67.555  1.00  0.00    -0.075 A 
HETATM   22  C   LIG     1      -8.665  14.193  68.432  1.00  0.00    -0.060 A 
HETATM   23  H   LIG     1     -10.638  13.788  67.693  1.00  0.00     0.084 H 
HETATM   24  C   LIG     1      -7.497  14.945  68.271  1.00  0.00     0.074 A 
HETATM   25  H   LIG     1      -8.746  13.455  69.226  1.00  0.00     0.085 H 
HETATM   26  C   LIG     1      -7.387  15.869  67.234  1.00  0.00    -0.060 A 
HETATM   27  C   LIG     1      -8.462  16.053  66.357  1.00  0.00    -0.075 A 
HETATM   28  H   LIG     1      -6.474  16.447  67.095  1.00  0.00     0.085 H 
HETATM   29  H   LIG     1      -8.373  16.776  65.548  1.00  0.00     0.084 H 
BRANCH  24  30
HETATM   30  S   LIG     1      -6.147  14.672  69.382  1.00  0.00     0.239 S 
HETATM   31  O   LIG     1      -6.005  15.844  70.225  1.00  0.00    -0.206 OA
HETATM   32  O   LIG     1      -5.043  14.094  68.671  1.00  0.00    -0.206 OA
BRANCH  30  33
HETATM   33  N   LIG     1      -6.714  13.451  70.387  1.00  0.00    -0.225 NA
HETATM   34  H   LIG     1      -6.753  13.793  71.349  1.00  0.00     0.136 HD
HETATM   35  H   LIG     1      -6.113  12.630  70.280  1.00  0.00     0.136 HD
ENDBRANCH  30  33
ENDBRANCH  24  30
ENDBRANCH  17  20
ENDBRANCH  13  17
ENDBRANCH   4   7
ENDBRANCH   1   3
BRANCH   1  36
HETATM   36  C   LIG     1      -9.093   9.367  60.897  1.00  0.00    -0.011 C 
HETATM   37  H   LIG     1      -8.448   9.694  60.074  1.00  0.00     0.050 H 
HETATM   38  H   LIG     1     -10.035   9.918  60.807  1.00  0.00     0.050 H 
BRANCH  36  39
HETATM   39  S   LIG     1      -9.482   7.610  60.569  1.00  0.00    -0.181 SA
HETATM   40  H   LIG     1      -8.213   7.165  60.665  1.00  0.00     0.101 HD
ENDBRANCH  36  39
ENDBRANCH   1  36
BRANCH   1  41
HETATM   41  C   LIG     1      -7.087  10.443  62.090  1.00  0.00    -0.026 A 
HETATM   42  C   LIG     1      -6.849  11.373  61.071  1.00  0.00    -0.067 A 
HETATM   43  C   LIG     1      -5.619  12.034  60.990  1.00  0.00    -0.038 A 
HETATM   44  H   LIG     1      -7.621  11.588  60.336  1.00  0.00     0.085 H 
HETATM   45  C   LIG     1      -4.659  11.722  61.943  1.00  0.00     0.008 A 
HETATM   46  N   LIG     1      -4.852  10.845  62.947  1.00  0.00    -0.272 NA
HETATM   47  H   LIG     1      -3.679  12.192  61.934  1.00  0.00     0.115 H 
HETATM   48  C   LIG     1      -6.048  10.220  62.993  1.00  0.00     0.009 A 
HETATM   49  H   LIG     1      -6.142   9.522  63.822  1.00  0.00     0.115 H 
BRANCH  43  50
HETATM   50  C   LIG     1      -5.331  13.041  59.907  1.00  0.00    -0.025 C 
HETATM   51  H   LIG     1      -5.385  14.057  60.316  1.00  0.00     0.042 H 
HETATM   52  H   LIG     1      -6.124  12.962  59.154  1.00  0.00     0.042 H 
BRANCH  50  53
HETATM   53  C   LIG     1      -3.969  12.843  59.229  1.00  0.00    -0.001 C 
HETATM   54  H   LIG     1      -3.172  13.143  59.917  1.00  0.00     0.064 H 
HETATM   55  H   LIG     1      -3.875  13.467  58.333  1.00  0.00     0.064 H 
BRANCH  53  56
HETATM   56  N   LIG     1      -3.749  11.472  58.808  1.00  0.00    -0.360 N 
HETATM   57  C   LIG     1      -4.367  10.951  57.690  1.00  0.00     0.221 C 
HETATM   58  O   LIG     1      -5.054  11.629  56.934  1.00  0.00    -0.273 OA
HETATM   59  H   LIG     1      -3.332  10.837  59.476  1.00  0.00     0.162 HD
BRANCH  57  60
HETATM   60  C   LIG     1      -4.141   9.450  57.497  1.00  0.00     0.024 C 
HETATM   61  C   LIG     1      -3.460   8.806  58.716  1.00  0.00    -0.051 C 
HETATM   62  C   LIG     1      -4.407   8.620  59.904  1.00  0.00    -0.040 C 
HETATM   63  H   LIG     1      -2.599   9.405  59.037  1.00  0.00     0.034 H 
HETATM   64  H   LIG     1      -3.060   7.826  58.425  1.00  0.00     0.034 H 
HETATM   65  C   LIG     1      -5.688   7.882  59.522  1.00  0.00     0.035 C 
HETATM   66  H   LIG     1      -4.666   9.597  60.326  1.00  0.00     0.036 H 
HETATM   67  H   LIG     1      -3.878   8.062  60.685  1.00  0.00     0.036 H 
HETATM   68  C   LIG     1      -6.380   8.524  58.321  1.00  0.00    -0.040 C 
HETATM   69  H   LIG     1      -6.373   7.891  60.376  1.00  0.00     0.082 H 
HETATM   70  C   LIG     1      -5.441   8.726  57.133  1.00  0.00    -0.051 C 
HETATM   71  H   LIG     1      -6.798   9.493  58.616  1.00  0.00     0.036 H 
HETATM   72  H   LIG     1      -7.216   7.893  57.994  1.00  0.00     0.036 H 
HETATM   73  H   LIG     1      -5.993   9.260  56.351  1.00  0.00     0.034 H 
HETATM   74  H   LIG     1      -5.181   7.751  56.708  1.00  0.00     0.034 H 
HETATM   75  H   LIG     1      -3.445   9.362  56.649  1.00  0.00     0.054 H 
BRANCH  65  76
HETATM   76  O   LIG     1      -5.389   6.512  59.263  1.00  0.00    -0.396 OA
HETATM   77  H   LIG     1      -5.157   6.403  58.328  1.00  0.00     0.210 HD
ENDBRANCH  65  76
ENDBRANCH  57  60
ENDBRANCH  53  56
ENDBRANCH  50  53
ENDBRANCH  43  50
ENDBRANCH   1  41
TORSDOF 14
ENDMDL
MODEL 4
REMARK minimizedAffinity -6.47545052
REMARK minimizedRMSD -1
REMARK  14 active torsions:
REMARK  status: ('A' for Active; 'I' for Inactive)
REMARK    1  A    between atoms: N_1  and  S_2 
REMARK    2  A    between atoms: S_2  and  C_5 
REMARK    3  A    between atoms: C_8  and  C_9 
REMARK    4  A    between atoms: C_9  and  C_10 
REMARK    5  A    between atoms: C_14  and  N_15 
REMARK       I    between atoms: N_15  and  C_16 
REMARK    6  A    between atoms: C_16  and  C_18 
REMARK    7  A    between atoms: C_18  and  C_19 
REMARK    8  A    between atoms: C_18  and  C_21 
REMARK    9  A    between atoms: C_19  and  S_20 
REMARK   10  A    between atoms: C_23  and  C_24 
REMARK   11  A    between atoms: C_24  and  C_25 
REMARK   12  A    between atoms: C_25  and  N_26 
REMARK       I    between atoms: N_26  and  C_27 
REMARK   13  A    between atoms: C_27  and  C_29 
REMARK   14  A    between atoms: C_32  and  O_33 
ROOT
HETATM    1  C   LIG     1      -7.763  18.866  67.078  1.00  0.00     0.058 C 
HETATM    2  H   LIG     1      -7.107  18.873  66.192  1.00  0.00     0.063 H 
ENDROOT
BRANCH   1   3
HETATM    3  C   LIG     1      -8.475  17.509  66.989  1.00  0.00     0.231 C 
HETATM    4  N   LIG     1      -9.526  17.342  67.884  1.00  0.00    -0.327 N 
HETATM    5  H   LIG     1      -9.988  18.177  68.222  1.00  0.00     0.169 HD
HETATM    6  O   LIG     1      -8.104  16.639  66.203  1.00  0.00    -0.272 OA
BRANCH   4   7
HETATM    7  C   LIG     1     -10.224  16.125  68.033  1.00  0.00     0.035 A 
HETATM    8  C   LIG     1     -10.108  15.433  69.237  1.00  0.00    -0.057 A 
HETATM    9  C   LIG     1     -10.839  14.261  69.448  1.00  0.00    -0.080 A 
HETATM   10  H   LIG     1      -9.497  15.827  70.042  1.00  0.00     0.086 H 
HETATM   11  C   LIG     1     -11.620  13.729  68.425  1.00  0.00    -0.076 A 
HETATM   12  H   LIG     1     -10.801  13.759  70.411  1.00  0.00     0.083 H 
HETATM   13  C   LIG     1     -11.684  14.366  67.180  1.00  0.00    -0.052 A 
HETATM   14  H   LIG     1     -12.168  12.804  68.598  1.00  0.00     0.084 H 
HETATM   15  C   LIG     1     -11.007  15.584  67.008  1.00  0.00    -0.051 A 
HETATM   16  H   LIG     1     -11.070  16.092  66.047  1.00  0.00     0.087 H 
BRANCH  13  17
HETATM   17  C   LIG     1     -12.465  13.758  66.034  1.00  0.00    -0.017 C 
HETATM   18  H   LIG     1     -13.310  13.199  66.455  1.00  0.00     0.047 H 
HETATM   19  H   LIG     1     -12.912  14.547  65.415  1.00  0.00     0.047 H 
BRANCH  17  20
HETATM   20  C   LIG     1     -11.641  12.869  65.125  1.00  0.00    -0.054 A 
HETATM   21  C   LIG     1     -10.356  12.460  65.513  1.00  0.00    -0.075 A 
HETATM   22  C   LIG     1      -9.589  11.640  64.683  1.00  0.00    -0.060 A 
HETATM   23  H   LIG     1      -9.941  12.776  66.468  1.00  0.00     0.084 H 
HETATM   24  C   LIG     1     -10.106  11.223  63.451  1.00  0.00     0.074 A 
HETATM   25  H   LIG     1      -8.600  11.324  65.007  1.00  0.00     0.085 H 
HETATM   26  C   LIG     1     -11.386  11.607  63.054  1.00  0.00    -0.060 A 
HETATM   27  C   LIG     1     -12.150  12.427  63.891  1.00  0.00    -0.075 A 
HETATM   28  H   LIG     1     -11.798  11.273  62.103  1.00  0.00     0.085 H 
HETATM   29  H   LIG     1     -13.150  12.726  63.577  1.00  0.00     0.084 H 
BRANCH  24  30
HETATM   30  S   LIG     1      -9.122  10.167  62.427  1.00  0.00     0.239 S 
HETATM   31  O   LIG     1      -8.704   9.025  63.217  1.00  0.00    -0.206 OA
HETATM   32  O   LIG     1      -8.199  10.957  61.663  1.00  0.00    -0.206 OA
BRANCH  30  33
HETATM   33  N   LIG     1     -10.228   9.573  61.311  1.00  0.00    -0.225 NA
HETATM   34  H   LIG     1     -10.287   8.557  61.400  1.00  0.00     0.136 HD
HETATM   35  H   LIG     1      -9.946   9.875  60.375  1.00  0.00     0.136 HD
ENDBRANCH  30  33
ENDBRANCH  24  30
ENDBRANCH  17  20
ENDBRANCH  13  17
ENDBRANCH   4   7
ENDBRANCH   1   3
BRANCH   1  36
HETATM   36  C   LIG     1      -8.733  20.053  66.861  1.00  0.00    -0.011 C 
HETATM   37  H   LIG     1      -8.238  20.813  66.246  1.00  0.00     0.050 H 
HETATM   38  H   LIG     1      -8.965  20.519  67.823  1.00  0.00     0.050 H 
BRANCH  36  39
HETATM   39  S   LIG     1     -10.335  19.709  66.047  1.00  0.00    -0.181 SA
HETATM   40  H   LIG     1      -9.811  19.224  64.904  1.00  0.00     0.101 HD
ENDBRANCH  36  39
ENDBRANCH   1  36
BRANCH   1  41
HETATM   41  C   LIG     1      -6.866  19.021  68.294  1.00  0.00    -0.026 A 
HETATM   42  C   LIG     1      -6.359  17.925  69.001  1.00  0.00    -0.067 A 
HETATM   43  C   LIG     1      -5.514  18.121  70.098  1.00  0.00    -0.038 A 
HETATM   44  H   LIG     1      -6.621  16.913  68.701  1.00  0.00     0.085 H 
HETATM   45  C   LIG     1      -5.215  19.430  70.452  1.00  0.00     0.008 A 
HETATM   46  N   LIG     1      -5.670  20.512  69.790  1.00  0.00    -0.272 NA
HETATM   47  H   LIG     1      -4.571  19.654  71.299  1.00  0.00     0.115 H 
HETATM   48  C   LIG     1      -6.487  20.287  68.739  1.00  0.00     0.009 A 
HETATM   49  H   LIG     1      -6.824  21.198  68.250  1.00  0.00     0.115 H 
BRANCH  43  50
HETATM   50  C   LIG     1      -4.951  16.964  70.881  1.00  0.00    -0.025 C 
HETATM   51  H   LIG     1      -5.716  16.557  71.553  1.00  0.00     0.042 H 
HETATM   52  H   LIG     1      -4.145  17.350  71.518  1.00  0.00     0.042 H 
BRANCH  50  53
HETATM   53  C   LIG     1      -4.401  15.834  70.001  1.00  0.00    -0.001 C 
HETATM   54  H   LIG     1      -3.418  15.528  70.372  1.00  0.00     0.064 H 
HETATM   55  H   LIG     1      -4.267  16.166  68.965  1.00  0.00     0.064 H 
BRANCH  53  56
HETATM   56  N   LIG     1      -5.279  14.681  69.958  1.00  0.00    -0.360 N 
HETATM   57  C   LIG     1      -5.959  14.330  68.810  1.00  0.00     0.221 C 
HETATM   58  O   LIG     1      -5.791  14.903  67.739  1.00  0.00    -0.273 OA
HETATM   59  H   LIG     1      -5.575  14.283  70.841  1.00  0.00     0.162 HD
BRANCH  57  60
HETATM   60  C   LIG     1      -6.957  13.187  69.002  1.00  0.00     0.024 C 
HETATM   61  C   LIG     1      -7.511  12.672  67.663  1.00  0.00    -0.051 C 
HETATM   62  C   LIG     1      -6.509  11.811  66.890  1.00  0.00    -0.040 C 
HETATM   63  H   LIG     1      -7.825  13.510  67.028  1.00  0.00     0.034 H 
HETATM   64  H   LIG     1      -8.413  12.078  67.855  1.00  0.00     0.034 H 
HETATM   65  C   LIG     1      -5.938  10.675  67.735  1.00  0.00     0.035 C 
HETATM   66  H   LIG     1      -5.688  12.438  66.526  1.00  0.00     0.036 H 
HETATM   67  H   LIG     1      -7.014  11.399  66.008  1.00  0.00     0.036 H 
HETATM   68  C   LIG     1      -5.371  11.178  69.061  1.00  0.00    -0.040 C 
HETATM   69  H   LIG     1      -5.142  10.176  67.172  1.00  0.00     0.082 H 
HETATM   70  C   LIG     1      -6.358  12.049  69.836  1.00  0.00    -0.051 C 
HETATM   71  H   LIG     1      -4.458  11.754  68.872  1.00  0.00     0.036 H 
HETATM   72  H   LIG     1      -5.095  10.326  69.694  1.00  0.00     0.036 H 
HETATM   73  H   LIG     1      -5.848  12.430  70.727  1.00  0.00     0.034 H 
HETATM   74  H   LIG     1      -7.180  11.425  70.201  1.00  0.00     0.034 H 
HETATM   75  H   LIG     1      -7.800  13.620  69.560  1.00  0.00     0.054 H 
BRANCH  65  76
HETATM   76  O   LIG     1      -6.947   9.692  67.955  1.00  0.00    -0.396 OA
HETATM   77  H   LIG     1      -7.445   9.914  68.757  1.00  0.00     0.210 HD
ENDBRANCH  65  76
ENDBRANCH  57  60
ENDBRANCH  53  56
ENDBRANCH  50  53
ENDBRANCH  43  50
ENDBRANCH   1  41
TORSDOF 14
ENDMDL
MODEL 5
REMARK minimizedAffinity -6.46568727
REMARK minimizedRMSD -1
REMARK  14 active torsions:
REMARK  status: ('A' for Active; 'I' for Inactive)
REMARK    1  A    between atoms: N_1  and  S_2 
REMARK    2  A    between atoms: S_2  and  C_5 
REMARK    3  A    between atoms: C_8  and  C_9 
REMARK    4  A    between atoms: C_9  and  C_10 
REMARK    5  A    between atoms: C_14  and  N_15 
REMARK       I    between atoms: N_15  and  C_16 
REMARK    6  A    between atoms: C_16  and  C_18 
REMARK    7  A    between atoms: C_18  and  C_19 
REMARK    8  A    between atoms: C_18  and  C_21 
REMARK    9  A    between atoms: C_19  and  S_20 
REMARK   10  A    between atoms: C_23  and  C_24 
REMARK   11  A    between atoms: C_24  and  C_25 
REMARK   12  A    between atoms: C_25  and  N_26 
REMARK       I    between atoms: N_26  and  C_27 
REMARK   13  A    between atoms: C_27  and  C_29 
REMARK   14  A    between atoms: C_32  and  O_33 
ROOT
HETATM    1  C   LIG     1      -4.627  19.202  60.777  1.00  0.00     0.058 C 
HETATM    2  H   LIG     1      -3.803  19.918  60.628  1.00  0.00     0.063 H 
ENDROOT
BRANCH   1   3
HETATM    3  C   LIG     1      -4.230  18.008  59.897  1.00  0.00     0.231 C 
HETATM    4  N   LIG     1      -5.175  16.990  59.835  1.00  0.00    -0.327 N 
HETATM    5  H   LIG     1      -6.140  17.238  60.012  1.00  0.00     0.169 HD
HETATM    6  O   LIG     1      -3.141  17.963  59.328  1.00  0.00    -0.272 OA
BRANCH   4   7
HETATM    7  C   LIG     1      -4.945  15.764  59.174  1.00  0.00     0.035 A 
HETATM    8  C   LIG     1      -5.078  15.720  57.788  1.00  0.00    -0.057 A 
HETATM    9  C   LIG     1      -4.791  14.543  57.091  1.00  0.00    -0.080 A 
HETATM   10  H   LIG     1      -5.347  16.611  57.231  1.00  0.00     0.086 H 
HETATM   11  C   LIG     1      -4.455  13.382  57.785  1.00  0.00    -0.076 A 
HETATM   12  H   LIG     1      -4.828  14.527  56.005  1.00  0.00     0.083 H 
HETATM   13  C   LIG     1      -4.398  13.387  59.184  1.00  0.00    -0.052 A 
HETATM   14  H   LIG     1      -4.253  12.468  57.229  1.00  0.00     0.084 H 
HETATM   15  C   LIG     1      -4.611  14.596  59.866  1.00  0.00    -0.051 A 
HETATM   16  H   LIG     1      -4.548  14.607  60.953  1.00  0.00     0.087 H 
BRANCH  13  17
HETATM   17  C   LIG     1      -4.111  12.115  59.955  1.00  0.00    -0.017 C 
HETATM   18  H   LIG     1      -3.470  11.477  59.334  1.00  0.00     0.047 H 
HETATM   19  H   LIG     1      -3.524  12.338  60.855  1.00  0.00     0.047 H 
BRANCH  17  20
HETATM   20  C   LIG     1      -5.353  11.361  60.388  1.00  0.00    -0.054 A 
HETATM   21  C   LIG     1      -5.567  10.045  59.952  1.00  0.00    -0.075 A 
HETATM   22  C   LIG     1      -6.707   9.342  60.346  1.00  0.00    -0.060 A 
HETATM   23  H   LIG     1      -4.846   9.554  59.301  1.00  0.00     0.084 H 
HETATM   24  C   LIG     1      -7.645   9.955  61.183  1.00  0.00     0.074 A 
HETATM   25  H   LIG     1      -6.849   8.319  60.007  1.00  0.00     0.085 H 
HETATM   26  C   LIG     1      -7.443  11.257  61.639  1.00  0.00    -0.060 A 
HETATM   27  C   LIG     1      -6.298  11.956  61.242  1.00  0.00    -0.075 A 
HETATM   28  H   LIG     1      -8.163  11.734  62.302  1.00  0.00     0.085 H 
HETATM   29  H   LIG     1      -6.144  12.973  61.599  1.00  0.00     0.084 H 
BRANCH  24  30
HETATM   30  S   LIG     1      -9.071   9.035  61.685  1.00  0.00     0.239 S 
HETATM   31  O   LIG     1      -9.638   9.674  62.857  1.00  0.00    -0.206 OA
HETATM   32  O   LIG     1      -8.783   7.630  61.634  1.00  0.00    -0.206 OA
BRANCH  30  33
HETATM   33  N   LIG     1     -10.165   9.308  60.440  1.00  0.00    -0.225 NA
HETATM   34  H   LIG     1     -10.989   9.784  60.810  1.00  0.00     0.136 HD
HETATM   35  H   LIG     1     -10.388   8.415  59.995  1.00  0.00     0.136 HD
ENDBRANCH  30  33
ENDBRANCH  24  30
ENDBRANCH  17  20
ENDBRANCH  13  17
ENDBRANCH   4   7
ENDBRANCH   1   3
BRANCH   1  36
HETATM   36  C   LIG     1      -5.885  19.930  60.246  1.00  0.00    -0.011 C 
HETATM   37  H   LIG     1      -5.880  20.965  60.605  1.00  0.00     0.050 H 
HETATM   38  H   LIG     1      -6.784  19.454  60.650  1.00  0.00     0.050 H 
BRANCH  36  39
HETATM   39  S   LIG     1      -6.116  20.026  58.433  1.00  0.00    -0.181 SA
HETATM   40  H   LIG     1      -4.966  20.682  58.179  1.00  0.00     0.101 HD
ENDBRANCH  36  39
ENDBRANCH   1  36
BRANCH   1  41
HETATM   41  C   LIG     1      -4.679  18.891  62.263  1.00  0.00    -0.026 A 
HETATM   42  C   LIG     1      -5.640  19.446  63.115  1.00  0.00    -0.067 A 
HETATM   43  C   LIG     1      -5.662  19.107  64.472  1.00  0.00    -0.038 A 
HETATM   44  H   LIG     1      -6.376  20.146  62.727  1.00  0.00     0.085 H 
HETATM   45  C   LIG     1      -4.697  18.218  64.927  1.00  0.00     0.008 A 
HETATM   46  N   LIG     1      -3.764  17.651  64.138  1.00  0.00    -0.272 NA
HETATM   47  H   LIG     1      -4.652  17.918  65.971  1.00  0.00     0.115 H 
HETATM   48  C   LIG     1      -3.767  18.004  62.835  1.00  0.00     0.009 A 
HETATM   49  H   LIG     1      -2.989  17.517  62.251  1.00  0.00     0.115 H 
BRANCH  43  50
HETATM   50  C   LIG     1      -6.683  19.685  65.417  1.00  0.00    -0.025 C 
HETATM   51  H   LIG     1      -6.858  18.993  66.250  1.00  0.00     0.042 H 
HETATM   52  H   LIG     1      -7.632  19.771  64.874  1.00  0.00     0.042 H 
BRANCH  50  53
HETATM   53  C   LIG     1      -6.295  21.059  65.977  1.00  0.00    -0.001 C 
HETATM   54  H   LIG     1      -7.049  21.798  65.686  1.00  0.00     0.064 H 
HETATM   55  H   LIG     1      -5.335  21.399  65.572  1.00  0.00     0.064 H 
BRANCH  53  56
HETATM   56  N   LIG     1      -6.159  21.056  67.421  1.00  0.00    -0.360 N 
HETATM   57  C   LIG     1      -4.925  20.975  68.032  1.00  0.00     0.221 C 
HETATM   58  O   LIG     1      -3.871  21.000  67.405  1.00  0.00    -0.273 OA
HETATM   59  H   LIG     1      -6.988  20.869  67.971  1.00  0.00     0.162 HD
BRANCH  57  60
HETATM   60  C   LIG     1      -4.991  20.823  69.553  1.00  0.00     0.024 C 
HETATM   61  C   LIG     1      -6.205  19.990  69.998  1.00  0.00    -0.051 C 
HETATM   62  C   LIG     1      -6.030  18.491  69.748  1.00  0.00    -0.040 C 
HETATM   63  H   LIG     1      -7.114  20.333  69.489  1.00  0.00     0.034 H 
HETATM   64  H   LIG     1      -6.375  20.153  71.070  1.00  0.00     0.034 H 
HETATM   65  C   LIG     1      -4.731  17.947  70.336  1.00  0.00     0.035 C 
HETATM   66  H   LIG     1      -6.050  18.292  68.671  1.00  0.00     0.036 H 
HETATM   67  H   LIG     1      -6.885  17.964  70.188  1.00  0.00     0.036 H 
HETATM   68  C   LIG     1      -3.517  18.757  69.887  1.00  0.00    -0.040 C 
HETATM   69  H   LIG     1      -4.603  16.906  70.019  1.00  0.00     0.082 H 
HETATM   70  C   LIG     1      -3.685  20.257  70.121  1.00  0.00    -0.051 C 
HETATM   71  H   LIG     1      -3.334  18.580  68.821  1.00  0.00     0.036 H 
HETATM   72  H   LIG     1      -2.625  18.423  70.432  1.00  0.00     0.036 H 
HETATM   73  H   LIG     1      -2.811  20.767  69.701  1.00  0.00     0.034 H 
HETATM   74  H   LIG     1      -3.665  20.459  71.196  1.00  0.00     0.034 H 
HETATM   75  H   LIG     1      -5.129  21.840  69.947  1.00  0.00     0.054 H 
BRANCH  65  76
HETATM   76  O   LIG     1      -4.826  17.921  71.759  1.00  0.00    -0.396 OA
HETATM   77  H   LIG     1      -4.525  18.770  72.117  1.00  0.00     0.210 HD
ENDBRANCH  65  76
ENDBRANCH  57  60
ENDBRANCH  53  56
ENDBRANCH  50  53
ENDBRANCH  43  50
ENDBRANCH   1  41
TORSDOF 14
ENDMDL
