MODEL 1
REMARK minimizedAffinity -8.0077486
REMARK minimizedRMSD -1
REMARK  13 active torsions:
REMARK  status: ('A' for Active; 'I' for Inactive)
REMARK    1  A    between atoms: N_1  and  S_2 
REMARK    2  A    between atoms: S_2  and  C_5 
REMARK    3  A    between atoms: C_8  and  C_9 
REMARK    4  A    between atoms: C_9  and  C_10 
REMARK    5  A    between atoms: C_14  and  N_15 
REMARK       I    between atoms: N_15  and  C_16 
REMARK       I    between atoms: C_16  and  N_18 
REMARK    6  A    between atoms: N_18  and  C_19 
REMARK    7  A    between atoms: C_20  and  C_25 
REMARK    8  A    between atoms: C_25  and  C_27 
REMARK    9  A    between atoms: C_25  and  C_38 
REMARK   10  A    between atoms: C_27  and  N_28 
REMARK       I    between atoms: N_28  and  C_29 
REMARK   11  A    between atoms: C_29  and  C_31 
REMARK   12  A    between atoms: C_34  and  O_35 
REMARK   13  A    between atoms: C_38  and  C_39 
ROOT
HETATM    1  C   LIG     1     -10.235  12.719  65.298  1.00  0.00     0.060 A 
HETATM    2  C   LIG     1     -11.218  13.078  66.236  1.00  0.00    -0.023 A 
HETATM    3  C   LIG     1     -12.481  13.418  65.721  1.00  0.00    -0.057 A 
HETATM    4  C   LIG     1     -12.724  13.362  64.360  1.00  0.00     0.002 A 
HETATM    5  N   LIG     1     -11.779  13.077  63.451  1.00  0.00    -0.271 NA
HETATM    6  C   LIG     1     -10.560  12.765  63.936  1.00  0.00     0.028 A 
HETATM    7  H   LIG     1     -13.307  13.686  66.371  1.00  0.00     0.086 H 
HETATM    8  H   LIG     1     -13.721  13.537  63.968  1.00  0.00     0.114 H 
HETATM    9  H   LIG     1      -9.818  12.550  63.170  1.00  0.00     0.118 H 
ENDROOT
BRANCH   2  10
HETATM   10  C   LIG     1     -10.995  13.117  67.755  1.00  0.00    -0.011 C 
HETATM   11  H   LIG     1      -9.946  12.842  67.936  1.00  0.00     0.050 H 
BRANCH  10  12
HETATM   12  C   LIG     1     -11.194  14.529  68.388  1.00  0.00     0.002 C 
HETATM   13  H   LIG     1     -10.627  14.594  69.325  1.00  0.00     0.065 H 
HETATM   14  H   LIG     1     -12.250  14.676  68.648  1.00  0.00     0.065 H 
BRANCH  12  15
HETATM   15  N   LIG     1     -10.756  15.650  67.554  1.00  0.00    -0.360 N 
HETATM   16  C   LIG     1      -9.436  16.075  67.479  1.00  0.00     0.221 C 
HETATM   17  O   LIG     1      -8.542  15.630  68.192  1.00  0.00    -0.273 OA
HETATM   18  H   LIG     1     -11.337  15.880  66.761  1.00  0.00     0.162 HD
BRANCH  16  19
HETATM   19  C   LIG     1      -9.188  17.113  66.366  1.00  0.00     0.024 C 
HETATM   20  C   LIG     1     -10.405  18.014  66.073  1.00  0.00    -0.051 C 
HETATM   21  C   LIG     1     -10.498  19.305  66.896  1.00  0.00    -0.040 C 
HETATM   22  H   LIG     1     -11.346  17.466  66.192  1.00  0.00     0.034 H 
HETATM   23  H   LIG     1     -10.354  18.303  65.016  1.00  0.00     0.034 H 
HETATM   24  C   LIG     1      -9.167  20.042  66.984  1.00  0.00     0.035 C 
HETATM   25  H   LIG     1     -10.871  19.080  67.902  1.00  0.00     0.036 H 
HETATM   26  H   LIG     1     -11.241  19.956  66.415  1.00  0.00     0.036 H 
HETATM   27  C   LIG     1      -8.073  19.113  67.500  1.00  0.00    -0.040 C 
HETATM   28  H   LIG     1      -9.265  20.914  67.641  1.00  0.00     0.082 H 
HETATM   29  C   LIG     1      -7.891  17.912  66.573  1.00  0.00    -0.051 C 
HETATM   30  H   LIG     1      -8.318  18.773  68.512  1.00  0.00     0.036 H 
HETATM   31  H   LIG     1      -7.123  19.657  67.559  1.00  0.00     0.036 H 
HETATM   32  H   LIG     1      -7.090  17.271  66.959  1.00  0.00     0.034 H 
HETATM   33  H   LIG     1      -7.541  18.271  65.595  1.00  0.00     0.034 H 
HETATM   34  H   LIG     1      -9.023  16.501  65.467  1.00  0.00     0.054 H 
BRANCH  24  35
HETATM   35  O   LIG     1      -8.837  20.520  65.680  1.00  0.00    -0.396 OA
HETATM   36  H   LIG     1      -7.885  20.718  65.664  1.00  0.00     0.210 HD
ENDBRANCH  24  35
ENDBRANCH  16  19
ENDBRANCH  12  15
ENDBRANCH  10  12
BRANCH  10  37
HETATM   37  C   LIG     1     -11.834  12.044  68.511  1.00  0.00    -0.053 C 
HETATM   38  H   LIG     1     -12.846  11.967  68.093  1.00  0.00     0.034 H 
HETATM   39  H   LIG     1     -11.973  12.341  69.556  1.00  0.00     0.034 H 
BRANCH  37  40
HETATM   40  C   LIG     1     -11.148  10.698  68.486  1.00  0.00    -0.053 A 
HETATM   41  C   LIG     1      -9.814  10.496  69.150  1.00  0.00    -0.061 A 
HETATM   42  C   LIG     1     -11.047   9.893  69.758  1.00  0.00    -0.061 A 
HETATM   43  H   LIG     1      -9.356  11.354  69.628  1.00  0.00     0.033 H 
HETATM   44  H   LIG     1      -9.110   9.816  68.684  1.00  0.00     0.033 H 
HETATM   45  H   LIG     1     -11.408  10.323  70.685  1.00  0.00     0.033 H 
HETATM   46  H   LIG     1     -11.214   8.824  69.681  1.00  0.00     0.033 H 
HETATM   47  H   LIG     1     -11.295  10.169  67.550  1.00  0.00     0.040 H 
ENDBRANCH  37  40
ENDBRANCH  10  37
ENDBRANCH   2  10
BRANCH   1  48
HETATM   48  N   LIG     1      -8.933  12.361  65.689  1.00  0.00    -0.307 N 
HETATM   49  C   LIG     1      -8.484  11.069  65.875  1.00  0.00     0.325 C 
HETATM   50  N   LIG     1      -9.327  10.099  65.370  1.00  0.00    -0.309 N 
HETATM   51  O   LIG     1      -7.391  10.872  66.397  1.00  0.00    -0.247 OA
HETATM   52  H   LIG     1      -9.956  10.408  64.645  1.00  0.00     0.170 HD
HETATM   53  H   LIG     1      -8.419  13.029  66.261  1.00  0.00     0.170 HD
BRANCH  50  54
HETATM   54  C   LIG     1      -9.032   8.731  65.406  1.00  0.00     0.036 A 
HETATM   55  C   LIG     1      -7.999   8.212  64.630  1.00  0.00    -0.057 A 
HETATM   56  C   LIG     1      -7.720   6.850  64.677  1.00  0.00    -0.080 A 
HETATM   57  H   LIG     1      -7.391   8.866  64.011  1.00  0.00     0.086 H 
HETATM   58  C   LIG     1      -8.483   6.009  65.488  1.00  0.00    -0.076 A 
HETATM   59  H   LIG     1      -6.913   6.445  64.076  1.00  0.00     0.083 H 
HETATM   60  C   LIG     1      -9.501   6.523  66.304  1.00  0.00    -0.052 A 
HETATM   61  H   LIG     1      -8.277   4.942  65.478  1.00  0.00     0.084 H 
HETATM   62  C   LIG     1      -9.756   7.903  66.271  1.00  0.00    -0.051 A 
HETATM   63  H   LIG     1     -10.562   8.319  66.871  1.00  0.00     0.087 H 
BRANCH  60  64
HETATM   64  C   LIG     1     -10.311   5.589  67.176  1.00  0.00    -0.017 C 
HETATM   65  H   LIG     1     -11.334   5.523  66.780  1.00  0.00     0.047 H 
HETATM   66  H   LIG     1      -9.917   4.567  67.088  1.00  0.00     0.047 H 
BRANCH  64  67
HETATM   67  C   LIG     1     -10.366   5.982  68.635  1.00  0.00    -0.054 A 
HETATM   68  C   LIG     1     -11.592   6.317  69.228  1.00  0.00    -0.075 A 
HETATM   69  C   LIG     1     -11.661   6.669  70.579  1.00  0.00    -0.060 A 
HETATM   70  H   LIG     1     -12.507   6.299  68.639  1.00  0.00     0.084 H 
HETATM   71  C   LIG     1     -10.494   6.681  71.345  1.00  0.00     0.074 A 
HETATM   72  H   LIG     1     -12.624   6.911  71.021  1.00  0.00     0.085 H 
HETATM   73  C   LIG     1      -9.262   6.359  70.771  1.00  0.00    -0.060 A 
HETATM   74  C   LIG     1      -9.200   6.010  69.420  1.00  0.00    -0.075 A 
HETATM   75  H   LIG     1      -8.356   6.366  71.372  1.00  0.00     0.085 H 
HETATM   76  H   LIG     1      -8.237   5.752  68.984  1.00  0.00     0.084 H 
BRANCH  71  77
HETATM   77  S   LIG     1     -10.580   7.041  73.074  1.00  0.00     0.239 S 
HETATM   78  O   LIG     1      -9.560   8.043  73.382  1.00  0.00    -0.206 OA
HETATM   79  O   LIG     1     -10.720   5.833  73.819  1.00  0.00    -0.206 OA
BRANCH  77  80
HETATM   80  N   LIG     1     -12.050   7.844  73.223  1.00  0.00    -0.225 NA
HETATM   81  H   LIG     1     -11.890   8.789  73.565  1.00  0.00     0.136 HD
HETATM   82  H   LIG     1     -12.666   7.293  73.826  1.00  0.00     0.136 HD
ENDBRANCH  77  80
ENDBRANCH  71  77
ENDBRANCH  64  67
ENDBRANCH  60  64
ENDBRANCH  50  54
ENDBRANCH   1  48
TORSDOF 13
ENDMDL
MODEL 2
REMARK minimizedAffinity -7.63156319
REMARK minimizedRMSD -1
REMARK  13 active torsions:
REMARK  status: ('A' for Active; 'I' for Inactive)
REMARK    1  A    between atoms: N_1  and  S_2 
REMARK    2  A    between atoms: S_2  and  C_5 
REMARK    3  A    between atoms: C_8  and  C_9 
REMARK    4  A    between atoms: C_9  and  C_10 
REMARK    5  A    between atoms: C_14  and  N_15 
REMARK       I    between atoms: N_15  and  C_16 
REMARK       I    between atoms: C_16  and  N_18 
REMARK    6  A    between atoms: N_18  and  C_19 
REMARK    7  A    between atoms: C_20  and  C_25 
REMARK    8  A    between atoms: C_25  and  C_27 
REMARK    9  A    between atoms: C_25  and  C_38 
REMARK   10  A    between atoms: C_27  and  N_28 
REMARK       I    between atoms: N_28  and  C_29 
REMARK   11  A    between atoms: C_29  and  C_31 
REMARK   12  A    between atoms: C_34  and  O_35 
REMARK   13  A    between atoms: C_38  and  C_39 
ROOT
HETATM    1  C   LIG     1     -11.864  13.098  65.574  1.00  0.00     0.060 A 
HETATM    2  C   LIG     1     -10.984  12.002  65.588  1.00  0.00    -0.023 A 
HETATM    3  C   LIG     1     -10.853  11.289  64.384  1.00  0.00    -0.057 A 
HETATM    4  C   LIG     1     -11.541  11.689  63.251  1.00  0.00     0.002 A 
HETATM    5  N   LIG     1     -12.426  12.697  63.240  1.00  0.00    -0.271 NA
HETATM    6  C   LIG     1     -12.570  13.376  64.396  1.00  0.00     0.028 A 
HETATM    7  H   LIG     1     -10.181  10.444  64.294  1.00  0.00     0.086 H 
HETATM    8  H   LIG     1     -11.373  11.195  62.299  1.00  0.00     0.114 H 
HETATM    9  H   LIG     1     -13.302  14.179  64.351  1.00  0.00     0.118 H 
ENDROOT
BRANCH   2  10
HETATM   10  C   LIG     1     -10.178  11.551  66.815  1.00  0.00    -0.011 C 
HETATM   11  H   LIG     1     -10.460  12.213  67.648  1.00  0.00     0.050 H 
BRANCH  10  12
HETATM   12  C   LIG     1     -10.496  10.097  67.282  1.00  0.00     0.002 C 
HETATM   13  H   LIG     1      -9.738   9.411  66.884  1.00  0.00     0.065 H 
HETATM   14  H   LIG     1     -11.461   9.775  66.869  1.00  0.00     0.065 H 
BRANCH  12  15
HETATM   15  N   LIG     1     -10.518   9.902  68.733  1.00  0.00    -0.360 N 
HETATM   16  C   LIG     1     -11.584  10.279  69.538  1.00  0.00     0.221 C 
HETATM   17  O   LIG     1     -12.548  10.916  69.126  1.00  0.00    -0.273 OA
HETATM   18  H   LIG     1      -9.926   9.171  69.101  1.00  0.00     0.162 HD
BRANCH  16  19
HETATM   19  C   LIG     1     -11.472   9.763  70.986  1.00  0.00     0.024 C 
HETATM   20  C   LIG     1     -12.834   9.507  71.664  1.00  0.00    -0.051 C 
HETATM   21  C   LIG     1     -13.420   8.102  71.485  1.00  0.00    -0.040 C 
HETATM   22  H   LIG     1     -13.585  10.234  71.336  1.00  0.00     0.034 H 
HETATM   23  H   LIG     1     -12.702   9.672  72.741  1.00  0.00     0.034 H 
HETATM   24  C   LIG     1     -12.386   7.003  71.701  1.00  0.00     0.035 C 
HETATM   25  H   LIG     1     -13.866   8.008  70.488  1.00  0.00     0.036 H 
HETATM   26  H   LIG     1     -14.233   7.982  72.214  1.00  0.00     0.036 H 
HETATM   27  C   LIG     1     -11.167   7.231  70.814  1.00  0.00    -0.040 C 
HETATM   28  H   LIG     1     -12.830   6.024  71.490  1.00  0.00     0.082 H 
HETATM   29  C   LIG     1     -10.507   8.574  71.123  1.00  0.00    -0.051 C 
HETATM   30  H   LIG     1     -11.460   7.192  69.758  1.00  0.00     0.036 H 
HETATM   31  H   LIG     1     -10.434   6.433  70.979  1.00  0.00     0.036 H 
HETATM   32  H   LIG     1      -9.626   8.704  70.483  1.00  0.00     0.034 H 
HETATM   33  H   LIG     1     -10.124   8.550  72.153  1.00  0.00     0.034 H 
HETATM   34  H   LIG     1     -10.999  10.596  71.528  1.00  0.00     0.054 H 
BRANCH  24  35
HETATM   35  O   LIG     1     -12.006   7.016  73.077  1.00  0.00    -0.396 OA
HETATM   36  H   LIG     1     -11.160   6.544  73.160  1.00  0.00     0.210 HD
ENDBRANCH  24  35
ENDBRANCH  16  19
ENDBRANCH  12  15
ENDBRANCH  10  12
BRANCH  10  37
HETATM   37  C   LIG     1      -8.645  11.756  66.632  1.00  0.00    -0.053 C 
HETATM   38  H   LIG     1      -8.338  11.535  65.601  1.00  0.00     0.034 H 
HETATM   39  H   LIG     1      -8.092  11.048  67.258  1.00  0.00     0.034 H 
BRANCH  37  40
HETATM   40  C   LIG     1      -8.231  13.157  67.018  1.00  0.00    -0.053 A 
HETATM   41  C   LIG     1      -8.224  13.593  68.456  1.00  0.00    -0.061 A 
HETATM   42  C   LIG     1      -6.924  13.372  67.739  1.00  0.00    -0.061 A 
HETATM   43  H   LIG     1      -8.544  12.875  69.201  1.00  0.00     0.033 H 
HETATM   44  H   LIG     1      -8.497  14.618  68.680  1.00  0.00     0.033 H 
HETATM   45  H   LIG     1      -6.333  12.511  68.030  1.00  0.00     0.033 H 
HETATM   46  H   LIG     1      -6.327  14.225  67.438  1.00  0.00     0.033 H 
HETATM   47  H   LIG     1      -8.553  13.903  66.299  1.00  0.00     0.040 H 
ENDBRANCH  37  40
ENDBRANCH  10  37
ENDBRANCH   2  10
BRANCH   1  48
HETATM   48  N   LIG     1     -12.082  13.888  66.717  1.00  0.00    -0.307 N 
HETATM   49  C   LIG     1     -11.380  15.032  67.040  1.00  0.00     0.325 C 
HETATM   50  N   LIG     1     -10.612  15.535  66.009  1.00  0.00    -0.309 N 
HETATM   51  O   LIG     1     -11.518  15.540  68.148  1.00  0.00    -0.247 OA
HETATM   52  H   LIG     1     -10.899  15.260  65.082  1.00  0.00     0.170 HD
HETATM   53  H   LIG     1     -12.448  13.419  67.543  1.00  0.00     0.170 HD
BRANCH  50  54
HETATM   54  C   LIG     1      -9.867  16.716  66.112  1.00  0.00     0.036 A 
HETATM   55  C   LIG     1     -10.506  17.952  66.141  1.00  0.00    -0.057 A 
HETATM   56  C   LIG     1      -9.751  19.116  66.243  1.00  0.00    -0.080 A 
HETATM   57  H   LIG     1     -11.591  18.014  66.114  1.00  0.00     0.086 H 
HETATM   58  C   LIG     1      -8.358  19.042  66.300  1.00  0.00    -0.076 A 
HETATM   59  H   LIG     1     -10.248  20.081  66.270  1.00  0.00     0.083 H 
HETATM   60  C   LIG     1      -7.703  17.802  66.310  1.00  0.00    -0.052 A 
HETATM   61  H   LIG     1      -7.784  19.964  66.337  1.00  0.00     0.084 H 
HETATM   62  C   LIG     1      -8.476  16.632  66.237  1.00  0.00    -0.051 A 
HETATM   63  H   LIG     1      -7.987  15.661  66.210  1.00  0.00     0.087 H 
BRANCH  60  64
HETATM   64  C   LIG     1      -6.192  17.750  66.377  1.00  0.00    -0.017 C 
HETATM   65  H   LIG     1      -5.806  17.317  65.443  1.00  0.00     0.047 H 
HETATM   66  H   LIG     1      -5.787  18.770  66.393  1.00  0.00     0.047 H 
BRANCH  64  67
HETATM   67  C   LIG     1      -5.642  16.973  67.551  1.00  0.00    -0.054 A 
HETATM   68  C   LIG     1      -6.272  17.048  68.803  1.00  0.00    -0.075 A 
HETATM   69  C   LIG     1      -5.783  16.325  69.894  1.00  0.00    -0.060 A 
HETATM   70  H   LIG     1      -7.156  17.669  68.932  1.00  0.00     0.084 H 
HETATM   71  C   LIG     1      -4.657  15.516  69.733  1.00  0.00     0.074 A 
HETATM   72  H   LIG     1      -6.296  16.388  70.851  1.00  0.00     0.085 H 
HETATM   73  C   LIG     1      -4.011  15.435  68.497  1.00  0.00    -0.060 A 
HETATM   74  C   LIG     1      -4.504  16.160  67.411  1.00  0.00    -0.075 A 
HETATM   75  H   LIG     1      -3.136  14.800  68.374  1.00  0.00     0.085 H 
HETATM   76  H   LIG     1      -3.998  16.083  66.450  1.00  0.00     0.084 H 
BRANCH  71  77
HETATM   77  S   LIG     1      -4.080  14.531  71.082  1.00  0.00     0.239 S 
HETATM   78  O   LIG     1      -2.709  14.937  71.390  1.00  0.00    -0.206 OA
HETATM   79  O   LIG     1      -4.452  13.169  70.888  1.00  0.00    -0.206 OA
BRANCH  77  80
HETATM   80  N   LIG     1      -5.005  15.078  72.376  1.00  0.00    -0.225 NA
HETATM   81  H   LIG     1      -4.396  15.479  73.087  1.00  0.00     0.136 HD
HETATM   82  H   LIG     1      -5.579  14.305  72.721  1.00  0.00     0.136 HD
ENDBRANCH  77  80
ENDBRANCH  71  77
ENDBRANCH  64  67
ENDBRANCH  60  64
ENDBRANCH  50  54
ENDBRANCH   1  48
TORSDOF 13
ENDMDL
MODEL 3
REMARK minimizedAffinity -7.51798248
REMARK minimizedRMSD -1
REMARK  13 active torsions:
REMARK  status: ('A' for Active; 'I' for Inactive)
REMARK    1  A    between atoms: N_1  and  S_2 
REMARK    2  A    between atoms: S_2  and  C_5 
REMARK    3  A    between atoms: C_8  and  C_9 
REMARK    4  A    between atoms: C_9  and  C_10 
REMARK    5  A    between atoms: C_14  and  N_15 
REMARK       I    between atoms: N_15  and  C_16 
REMARK       I    between atoms: C_16  and  N_18 
REMARK    6  A    between atoms: N_18  and  C_19 
REMARK    7  A    between atoms: C_20  and  C_25 
REMARK    8  A    between atoms: C_25  and  C_27 
REMARK    9  A    between atoms: C_25  and  C_38 
REMARK   10  A    between atoms: C_27  and  N_28 
REMARK       I    between atoms: N_28  and  C_29 
REMARK   11  A    between atoms: C_29  and  C_31 
REMARK   12  A    between atoms: C_34  and  O_35 
REMARK   13  A    between atoms: C_38  and  C_39 
ROOT
HETATM    1  C   LIG     1     -12.433  10.593  70.390  1.00  0.00     0.060 A 
HETATM    2  C   LIG     1     -11.759  11.456  69.509  1.00  0.00    -0.023 A 
HETATM    3  C   LIG     1     -11.808  12.826  69.814  1.00  0.00    -0.057 A 
HETATM    4  C   LIG     1     -12.464  13.272  70.948  1.00  0.00     0.002 A 
HETATM    5  N   LIG     1     -13.159  12.466  71.766  1.00  0.00    -0.271 NA
HETATM    6  C   LIG     1     -13.131  11.150  71.470  1.00  0.00     0.028 A 
HETATM    7  H   LIG     1     -11.298  13.564  69.205  1.00  0.00     0.086 H 
HETATM    8  H   LIG     1     -12.427  14.318  71.234  1.00  0.00     0.114 H 
HETATM    9  H   LIG     1     -13.713  10.529  72.148  1.00  0.00     0.118 H 
ENDROOT
BRANCH   2  10
HETATM   10  C   LIG     1     -10.991  10.995  68.261  1.00  0.00    -0.011 C 
HETATM   11  H   LIG     1     -11.217   9.928  68.117  1.00  0.00     0.050 H 
BRANCH  10  12
HETATM   12  C   LIG     1     -11.425  11.717  66.948  1.00  0.00     0.002 C 
HETATM   13  H   LIG     1     -12.430  12.137  67.077  1.00  0.00     0.065 H 
HETATM   14  H   LIG     1     -11.488  10.991  66.127  1.00  0.00     0.065 H 
BRANCH  12  15
HETATM   15  N   LIG     1     -10.559  12.822  66.532  1.00  0.00    -0.360 N 
HETATM   16  C   LIG     1     -11.028  14.101  66.267  1.00  0.00     0.221 C 
HETATM   17  O   LIG     1     -12.220  14.390  66.239  1.00  0.00    -0.273 OA
HETATM   18  H   LIG     1      -9.584  12.756  66.790  1.00  0.00     0.162 HD
BRANCH  16  19
HETATM   19  C   LIG     1      -9.904  15.140  66.076  1.00  0.00     0.024 C 
HETATM   20  C   LIG     1     -10.384  16.602  66.176  1.00  0.00    -0.051 C 
HETATM   21  C   LIG     1     -10.362  17.222  67.579  1.00  0.00    -0.040 C 
HETATM   22  H   LIG     1     -11.394  16.720  65.768  1.00  0.00     0.034 H 
HETATM   23  H   LIG     1      -9.728  17.209  65.540  1.00  0.00     0.034 H 
HETATM   24  C   LIG     1      -9.071  16.923  68.332  1.00  0.00     0.035 C 
HETATM   25  H   LIG     1     -11.224  16.869  68.156  1.00  0.00     0.036 H 
HETATM   26  H   LIG     1     -10.472  18.309  67.467  1.00  0.00     0.036 H 
HETATM   27  C   LIG     1      -8.805  15.422  68.365  1.00  0.00    -0.040 C 
HETATM   28  H   LIG     1      -9.131  17.320  69.351  1.00  0.00     0.082 H 
HETATM   29  C   LIG     1      -8.674  14.856  66.952  1.00  0.00    -0.051 C 
HETATM   30  H   LIG     1      -9.613  14.910  68.901  1.00  0.00     0.036 H 
HETATM   31  H   LIG     1      -7.875  15.222  68.911  1.00  0.00     0.036 H 
HETATM   32  H   LIG     1      -8.468  13.780  67.008  1.00  0.00     0.034 H 
HETATM   33  H   LIG     1      -7.792  15.303  66.473  1.00  0.00     0.034 H 
HETATM   34  H   LIG     1      -9.575  14.984  65.038  1.00  0.00     0.054 H 
BRANCH  24  35
HETATM   35  O   LIG     1      -8.003  17.600  67.668  1.00  0.00    -0.396 OA
HETATM   36  H   LIG     1      -7.167  17.188  67.945  1.00  0.00     0.210 HD
ENDBRANCH  24  35
ENDBRANCH  16  19
ENDBRANCH  12  15
ENDBRANCH  10  12
BRANCH  10  37
HETATM   37  C   LIG     1      -9.446  11.062  68.451  1.00  0.00    -0.053 C 
HETATM   38  H   LIG     1      -9.118  12.090  68.653  1.00  0.00     0.034 H 
HETATM   39  H   LIG     1      -8.939  10.773  67.524  1.00  0.00     0.034 H 
BRANCH  37  40
HETATM   40  C   LIG     1      -8.990  10.135  69.553  1.00  0.00    -0.053 A 
HETATM   41  C   LIG     1      -8.145   8.929  69.250  1.00  0.00    -0.061 A 
HETATM   42  C   LIG     1      -7.534  10.110  69.947  1.00  0.00    -0.061 A 
HETATM   43  H   LIG     1      -7.893   8.740  68.213  1.00  0.00     0.033 H 
HETATM   44  H   LIG     1      -8.303   8.034  69.841  1.00  0.00     0.033 H 
HETATM   45  H   LIG     1      -6.825  10.709  69.387  1.00  0.00     0.033 H 
HETATM   46  H   LIG     1      -7.309  10.049  71.006  1.00  0.00     0.033 H 
HETATM   47  H   LIG     1      -9.737  10.006  70.329  1.00  0.00     0.040 H 
ENDBRANCH  37  40
ENDBRANCH  10  37
ENDBRANCH   2  10
BRANCH   1  48
HETATM   48  N   LIG     1     -12.459   9.201  70.190  1.00  0.00    -0.307 N 
HETATM   49  C   LIG     1     -11.665   8.287  70.851  1.00  0.00     0.325 C 
HETATM   50  N   LIG     1     -11.015   8.797  71.957  1.00  0.00    -0.309 N 
HETATM   51  O   LIG     1     -11.631   7.121  70.471  1.00  0.00    -0.247 OA
HETATM   52  H   LIG     1     -11.435   9.619  72.364  1.00  0.00     0.170 HD
HETATM   53  H   LIG     1     -12.737   8.870  69.268  1.00  0.00     0.170 HD
BRANCH  50  54
HETATM   54  C   LIG     1     -10.205   8.023  72.797  1.00  0.00     0.036 A 
HETATM   55  C   LIG     1     -10.752   6.978  73.537  1.00  0.00    -0.057 A 
HETATM   56  C   LIG     1      -9.933   6.220  74.366  1.00  0.00    -0.080 A 
HETATM   57  H   LIG     1     -11.807   6.731  73.448  1.00  0.00     0.086 H 
HETATM   58  C   LIG     1      -8.573   6.517  74.467  1.00  0.00    -0.076 A 
HETATM   59  H   LIG     1     -10.357   5.401  74.940  1.00  0.00     0.083 H 
HETATM   60  C   LIG     1      -8.001   7.542  73.699  1.00  0.00    -0.052 A 
HETATM   61  H   LIG     1      -7.959   5.940  75.153  1.00  0.00     0.084 H 
HETATM   62  C   LIG     1      -8.831   8.283  72.843  1.00  0.00    -0.051 A 
HETATM   63  H   LIG     1      -8.415   9.104  72.263  1.00  0.00     0.087 H 
BRANCH  60  64
HETATM   64  C   LIG     1      -6.524   7.842  73.825  1.00  0.00    -0.017 C 
HETATM   65  H   LIG     1      -6.000   6.935  74.159  1.00  0.00     0.047 H 
HETATM   66  H   LIG     1      -6.103   8.052  72.833  1.00  0.00     0.047 H 
BRANCH  64  67
HETATM   67  C   LIG     1      -6.192   8.981  74.762  1.00  0.00    -0.054 A 
HETATM   68  C   LIG     1      -7.017   9.248  75.866  1.00  0.00    -0.075 A 
HETATM   69  C   LIG     1      -6.715  10.289  76.749  1.00  0.00    -0.060 A 
HETATM   70  H   LIG     1      -7.898   8.638  76.049  1.00  0.00     0.084 H 
HETATM   71  C   LIG     1      -5.578  11.068  76.529  1.00  0.00     0.074 A 
HETATM   72  H   LIG     1      -7.360  10.468  77.605  1.00  0.00     0.085 H 
HETATM   73  C   LIG     1      -4.750  10.824  75.431  1.00  0.00    -0.060 A 
HETATM   74  C   LIG     1      -5.057   9.783  74.552  1.00  0.00    -0.075 A 
HETATM   75  H   LIG     1      -3.863  11.431  75.265  1.00  0.00     0.085 H 
HETATM   76  H   LIG     1      -4.401   9.596  73.704  1.00  0.00     0.084 H 
BRANCH  71  77
HETATM   77  S   LIG     1      -5.139  12.331  77.684  1.00  0.00     0.239 S 
HETATM   78  O   LIG     1      -3.890  12.945  77.236  1.00  0.00    -0.206 OA
HETATM   79  O   LIG     1      -5.331  11.864  79.017  1.00  0.00    -0.206 OA
BRANCH  77  80
HETATM   80  N   LIG     1      -6.322  13.501  77.436  1.00  0.00    -0.225 NA
HETATM   81  H   LIG     1      -5.887  14.366  77.119  1.00  0.00     0.136 HD
HETATM   82  H   LIG     1      -6.862  13.611  78.297  1.00  0.00     0.136 HD
ENDBRANCH  77  80
ENDBRANCH  71  77
ENDBRANCH  64  67
ENDBRANCH  60  64
ENDBRANCH  50  54
ENDBRANCH   1  48
TORSDOF 13
ENDMDL
MODEL 4
REMARK minimizedAffinity -6.63035393
REMARK minimizedRMSD -1
REMARK  13 active torsions:
REMARK  status: ('A' for Active; 'I' for Inactive)
REMARK    1  A    between atoms: N_1  and  S_2 
REMARK    2  A    between atoms: S_2  and  C_5 
REMARK    3  A    between atoms: C_8  and  C_9 
REMARK    4  A    between atoms: C_9  and  C_10 
REMARK    5  A    between atoms: C_14  and  N_15 
REMARK       I    between atoms: N_15  and  C_16 
REMARK       I    between atoms: C_16  and  N_18 
REMARK    6  A    between atoms: N_18  and  C_19 
REMARK    7  A    between atoms: C_20  and  C_25 
REMARK    8  A    between atoms: C_25  and  C_27 
REMARK    9  A    between atoms: C_25  and  C_38 
REMARK   10  A    between atoms: C_27  and  N_28 
REMARK       I    between atoms: N_28  and  C_29 
REMARK   11  A    between atoms: C_29  and  C_31 
REMARK   12  A    between atoms: C_34  and  O_35 
REMARK   13  A    between atoms: C_38  and  C_39 
ROOT
HETATM    1  C   LIG     1     -12.791  10.718  70.814  1.00  0.00     0.060 A 
HETATM    2  C   LIG     1     -12.104  11.483  69.855  1.00  0.00    -0.023 A 
HETATM    3  C   LIG     1     -12.090  12.873  70.057  1.00  0.00    -0.057 A 
HETATM    4  C   LIG     1     -12.699  13.430  71.168  1.00  0.00     0.002 A 
HETATM    5  N   LIG     1     -13.406  12.717  72.059  1.00  0.00    -0.271 NA
HETATM    6  C   LIG     1     -13.439  11.383  71.864  1.00  0.00     0.028 A 
HETATM    7  H   LIG     1     -11.566  13.541  69.382  1.00  0.00     0.086 H 
HETATM    8  H   LIG     1     -12.612  14.492  71.373  1.00  0.00     0.114 H 
HETATM    9  H   LIG     1     -14.029  10.841  72.599  1.00  0.00     0.118 H 
ENDROOT
BRANCH   2  10
HETATM   10  C   LIG     1     -11.387  10.897  68.630  1.00  0.00    -0.011 C 
HETATM   11  H   LIG     1     -11.753   9.868  68.502  1.00  0.00     0.050 H 
BRANCH  10  12
HETATM   12  C   LIG     1     -11.700  11.644  67.296  1.00  0.00     0.002 C 
HETATM   13  H   LIG     1     -12.739  11.996  67.310  1.00  0.00     0.065 H 
HETATM   14  H   LIG     1     -11.612  10.950  66.451  1.00  0.00     0.065 H 
BRANCH  12  15
HETATM   15  N   LIG     1     -10.864  12.817  67.031  1.00  0.00    -0.360 N 
HETATM   16  C   LIG     1     -11.379  14.061  66.693  1.00  0.00     0.221 C 
HETATM   17  O   LIG     1     -12.568  14.261  66.469  1.00  0.00    -0.273 OA
HETATM   18  H   LIG     1      -9.943  12.820  67.446  1.00  0.00     0.162 HD
BRANCH  16  19
HETATM   19  C   LIG     1     -10.321  15.182  66.692  1.00  0.00     0.024 C 
HETATM   20  C   LIG     1     -10.627  16.328  67.678  1.00  0.00    -0.051 C 
HETATM   21  C   LIG     1     -10.068  16.161  69.096  1.00  0.00    -0.040 C 
HETATM   22  H   LIG     1     -11.704  16.511  67.756  1.00  0.00     0.034 H 
HETATM   23  H   LIG     1     -10.193  17.246  67.262  1.00  0.00     0.034 H 
HETATM   24  C   LIG     1      -8.620  15.684  69.104  1.00  0.00     0.035 C 
HETATM   25  H   LIG     1     -10.696  15.465  69.665  1.00  0.00     0.036 H 
HETATM   26  H   LIG     1     -10.130  17.135  69.599  1.00  0.00     0.036 H 
HETATM   27  C   LIG     1      -8.470  14.412  68.276  1.00  0.00    -0.040 C 
HETATM   28  H   LIG     1      -8.289  15.507  70.133  1.00  0.00     0.082 H 
HETATM   29  C   LIG     1      -8.885  14.649  66.825  1.00  0.00    -0.051 C 
HETATM   30  H   LIG     1      -9.074  13.608  68.712  1.00  0.00     0.036 H 
HETATM   31  H   LIG     1      -7.425  14.081  68.292  1.00  0.00     0.036 H 
HETATM   32  H   LIG     1      -8.752  13.724  66.251  1.00  0.00     0.034 H 
HETATM   33  H   LIG     1      -8.197  15.380  66.376  1.00  0.00     0.034 H 
HETATM   34  H   LIG     1     -10.390  15.608  65.680  1.00  0.00     0.054 H 
BRANCH  24  35
HETATM   35  O   LIG     1      -7.807  16.725  68.563  1.00  0.00    -0.396 OA
HETATM   36  H   LIG     1      -6.959  16.335  68.291  1.00  0.00     0.210 HD
ENDBRANCH  24  35
ENDBRANCH  16  19
ENDBRANCH  12  15
ENDBRANCH  10  12
BRANCH  10  37
HETATM   37  C   LIG     1      -9.851  10.760  68.846  1.00  0.00    -0.053 C 
HETATM   38  H   LIG     1      -9.566  11.064  69.861  1.00  0.00     0.034 H 
HETATM   39  H   LIG     1      -9.313  11.442  68.178  1.00  0.00     0.034 H 
BRANCH  37  40
HETATM   40  C   LIG     1      -9.382   9.352  68.564  1.00  0.00    -0.053 A 
HETATM   41  C   LIG     1     -10.231   8.398  67.770  1.00  0.00    -0.061 A 
HETATM   42  C   LIG     1      -8.984   8.968  67.161  1.00  0.00    -0.061 A 
HETATM   43  H   LIG     1     -11.195   8.751  67.425  1.00  0.00     0.033 H 
HETATM   44  H   LIG     1     -10.213   7.349  68.044  1.00  0.00     0.033 H 
HETATM   45  H   LIG     1      -9.103   9.691  66.362  1.00  0.00     0.033 H 
HETATM   46  H   LIG     1      -8.106   8.340  67.051  1.00  0.00     0.033 H 
HETATM   47  H   LIG     1      -8.834   8.918  69.394  1.00  0.00     0.040 H 
ENDBRANCH  37  40
ENDBRANCH  10  37
ENDBRANCH   2  10
BRANCH   1  48
HETATM   48  N   LIG     1     -12.879   9.318  70.721  1.00  0.00    -0.307 N 
HETATM   49  C   LIG     1     -11.889   8.432  71.094  1.00  0.00     0.325 C 
HETATM   50  N   LIG     1     -10.879   8.995  71.848  1.00  0.00    -0.309 N 
HETATM   51  O   LIG     1     -11.989   7.245  70.798  1.00  0.00    -0.247 OA
HETATM   52  H   LIG     1     -11.125   9.845  72.332  1.00  0.00     0.170 HD
HETATM   53  H   LIG     1     -13.475   8.937  69.988  1.00  0.00     0.170 HD
BRANCH  50  54
HETATM   54  C   LIG     1      -9.810   8.259  72.373  1.00  0.00     0.036 A 
HETATM   55  C   LIG     1     -10.021   7.341  73.398  1.00  0.00    -0.057 A 
HETATM   56  C   LIG     1      -8.948   6.619  73.907  1.00  0.00    -0.080 A 
HETATM   57  H   LIG     1     -11.022   7.163  73.782  1.00  0.00     0.086 H 
HETATM   58  C   LIG     1      -7.663   6.827  73.403  1.00  0.00    -0.076 A 
HETATM   59  H   LIG     1      -9.111   5.899  74.704  1.00  0.00     0.083 H 
HETATM   60  C   LIG     1      -7.441   7.720  72.344  1.00  0.00    -0.052 A 
HETATM   61  H   LIG     1      -6.832   6.283  73.843  1.00  0.00     0.084 H 
HETATM   62  C   LIG     1      -8.536   8.423  71.817  1.00  0.00    -0.051 A 
HETATM   63  H   LIG     1      -8.382   9.144  71.018  1.00  0.00     0.087 H 
BRANCH  60  64
HETATM   64  C   LIG     1      -6.040   7.924  71.813  1.00  0.00    -0.017 C 
HETATM   65  H   LIG     1      -5.394   8.281  72.628  1.00  0.00     0.047 H 
HETATM   66  H   LIG     1      -5.608   6.955  71.526  1.00  0.00     0.047 H 
BRANCH  64  67
HETATM   67  C   LIG     1      -5.943   8.881  70.646  1.00  0.00    -0.054 A 
HETATM   68  C   LIG     1      -5.716   8.391  69.351  1.00  0.00    -0.075 A 
HETATM   69  C   LIG     1      -5.638   9.262  68.261  1.00  0.00    -0.060 A 
HETATM   70  H   LIG     1      -5.605   7.322  69.183  1.00  0.00     0.084 H 
HETATM   71  C   LIG     1      -5.793  10.634  68.466  1.00  0.00     0.074 A 
HETATM   72  H   LIG     1      -5.476   8.858  67.265  1.00  0.00     0.085 H 
HETATM   73  C   LIG     1      -6.011  11.141  69.749  1.00  0.00    -0.060 A 
HETATM   74  C   LIG     1      -6.087  10.266  70.834  1.00  0.00    -0.075 A 
HETATM   75  H   LIG     1      -6.135  12.210  69.904  1.00  0.00     0.085 H 
HETATM   76  H   LIG     1      -6.266  10.671  71.828  1.00  0.00     0.084 H 
BRANCH  71  77
HETATM   77  S   LIG     1      -5.782  11.737  67.085  1.00  0.00     0.239 S 
HETATM   78  O   LIG     1      -5.215  13.012  67.524  1.00  0.00    -0.206 OA
HETATM   79  O   LIG     1      -7.017  11.649  66.378  1.00  0.00    -0.206 OA
BRANCH  77  80
HETATM   80  N   LIG     1      -4.624  11.063  66.068  1.00  0.00    -0.225 NA
HETATM   81  H   LIG     1      -3.859  11.722  65.937  1.00  0.00     0.136 HD
HETATM   82  H   LIG     1      -5.075  10.785  65.194  1.00  0.00     0.136 HD
ENDBRANCH  77  80
ENDBRANCH  71  77
ENDBRANCH  64  67
ENDBRANCH  60  64
ENDBRANCH  50  54
ENDBRANCH   1  48
TORSDOF 13
ENDMDL
MODEL 5
REMARK minimizedAffinity -6.31514549
REMARK minimizedRMSD -1
REMARK  13 active torsions:
REMARK  status: ('A' for Active; 'I' for Inactive)
REMARK    1  A    between atoms: N_1  and  S_2 
REMARK    2  A    between atoms: S_2  and  C_5 
REMARK    3  A    between atoms: C_8  and  C_9 
REMARK    4  A    between atoms: C_9  and  C_10 
REMARK    5  A    between atoms: C_14  and  N_15 
REMARK       I    between atoms: N_15  and  C_16 
REMARK       I    between atoms: C_16  and  N_18 
REMARK    6  A    between atoms: N_18  and  C_19 
REMARK    7  A    between atoms: C_20  and  C_25 
REMARK    8  A    between atoms: C_25  and  C_27 
REMARK    9  A    between atoms: C_25  and  C_38 
REMARK   10  A    between atoms: C_27  and  N_28 
REMARK       I    between atoms: N_28  and  C_29 
REMARK   11  A    between atoms: C_29  and  C_31 
REMARK   12  A    between atoms: C_34  and  O_35 
REMARK   13  A    between atoms: C_38  and  C_39 
ROOT
HETATM    1  C   LIG     1     -12.250  11.333  70.226  1.00  0.00     0.060 A 
HETATM    2  C   LIG     1     -11.863  12.573  69.689  1.00  0.00    -0.023 A 
HETATM    3  C   LIG     1     -12.292  13.717  70.384  1.00  0.00    -0.057 A 
HETATM    4  C   LIG     1     -13.027  13.598  71.550  1.00  0.00     0.002 A 
HETATM    5  N   LIG     1     -13.452  12.423  72.041  1.00  0.00    -0.271 NA
HETATM    6  C   LIG     1     -13.058  11.321  71.371  1.00  0.00     0.028 A 
HETATM    7  H   LIG     1     -12.023  14.715  70.057  1.00  0.00     0.086 H 
HETATM    8  H   LIG     1     -13.283  14.476  72.135  1.00  0.00     0.114 H 
HETATM    9  H   LIG     1     -13.429  10.388  71.792  1.00  0.00     0.118 H 
ENDROOT
BRANCH   2  10
HETATM   10  C   LIG     1     -11.018  12.743  68.418  1.00  0.00    -0.011 C 
HETATM   11  H   LIG     1     -11.236  13.744  68.017  1.00  0.00     0.050 H 
BRANCH  10  12
HETATM   12  C   LIG     1      -9.479  12.695  68.669  1.00  0.00     0.002 C 
HETATM   13  H   LIG     1      -9.288  12.452  69.722  1.00  0.00     0.065 H 
HETATM   14  H   LIG     1      -9.041  13.685  68.489  1.00  0.00     0.065 H 
BRANCH  12  15
HETATM   15  N   LIG     1      -8.751  11.706  67.872  1.00  0.00    -0.360 N 
HETATM   16  C   LIG     1      -8.065  10.634  68.427  1.00  0.00     0.221 C 
HETATM   17  O   LIG     1      -7.905  10.487  69.634  1.00  0.00    -0.273 OA
HETATM   18  H   LIG     1      -9.048  11.590  66.913  1.00  0.00     0.162 HD
BRANCH  16  19
HETATM   19  C   LIG     1      -7.579   9.610  67.381  1.00  0.00     0.024 C 
HETATM   20  C   LIG     1      -8.556   8.438  67.157  1.00  0.00    -0.051 C 
HETATM   21  C   LIG     1      -9.620   8.648  66.073  1.00  0.00    -0.040 C 
HETATM   22  H   LIG     1      -9.067   8.160  68.086  1.00  0.00     0.034 H 
HETATM   23  H   LIG     1      -7.961   7.563  66.866  1.00  0.00     0.034 H 
HETATM   24  C   LIG     1      -9.046   9.250  64.796  1.00  0.00     0.035 C 
HETATM   25  H   LIG     1     -10.426   9.283  66.459  1.00  0.00     0.036 H 
HETATM   26  H   LIG     1     -10.063   7.669  65.844  1.00  0.00     0.036 H 
HETATM   27  C   LIG     1      -8.283  10.534  65.105  1.00  0.00    -0.040 C 
HETATM   28  H   LIG     1      -9.851   9.451  64.082  1.00  0.00     0.082 H 
HETATM   29  C   LIG     1      -7.126  10.267  66.067  1.00  0.00    -0.051 C 
HETATM   30  H   LIG     1      -8.962  11.280  65.533  1.00  0.00     0.036 H 
HETATM   31  H   LIG     1      -7.877  10.956  64.178  1.00  0.00     0.036 H 
HETATM   32  H   LIG     1      -6.587  11.203  66.258  1.00  0.00     0.034 H 
HETATM   33  H   LIG     1      -6.403   9.602  65.574  1.00  0.00     0.034 H 
HETATM   34  H   LIG     1      -6.670   9.184  67.832  1.00  0.00     0.054 H 
BRANCH  24  35
HETATM   35  O   LIG     1      -8.174   8.287  64.204  1.00  0.00    -0.396 OA
HETATM   36  H   LIG     1      -7.591   8.752  63.580  1.00  0.00     0.210 HD
ENDBRANCH  24  35
ENDBRANCH  16  19
ENDBRANCH  12  15
ENDBRANCH  10  12
BRANCH  10  37
HETATM   37  C   LIG     1     -11.431  11.752  67.289  1.00  0.00    -0.053 C 
HETATM   38  H   LIG     1     -12.129  10.992  67.667  1.00  0.00     0.034 H 
HETATM   39  H   LIG     1     -10.556  11.193  66.939  1.00  0.00     0.034 H 
BRANCH  37  40
HETATM   40  C   LIG     1     -12.032  12.484  66.112  1.00  0.00    -0.053 A 
HETATM   41  C   LIG     1     -11.927  13.979  65.995  1.00  0.00    -0.061 A 
HETATM   42  C   LIG     1     -11.122  13.102  65.080  1.00  0.00    -0.061 A 
HETATM   43  H   LIG     1     -11.423  14.511  66.792  1.00  0.00     0.033 H 
HETATM   44  H   LIG     1     -12.761  14.516  65.557  1.00  0.00     0.033 H 
HETATM   45  H   LIG     1     -10.050  13.070  65.234  1.00  0.00     0.033 H 
HETATM   46  H   LIG     1     -11.414  13.002  64.040  1.00  0.00     0.033 H 
HETATM   47  H   LIG     1     -12.969  12.048  65.780  1.00  0.00     0.040 H 
ENDBRANCH  37  40
ENDBRANCH  10  37
ENDBRANCH   2  10
BRANCH   1  48
HETATM   48  N   LIG     1     -11.885  10.117  69.621  1.00  0.00    -0.307 N 
HETATM   49  C   LIG     1     -11.164   9.110  70.230  1.00  0.00     0.325 C 
HETATM   50  N   LIG     1     -11.053   9.242  71.599  1.00  0.00    -0.309 N 
HETATM   51  O   LIG     1     -10.737   8.175  69.559  1.00  0.00    -0.247 OA
HETATM   52  H   LIG     1     -11.762   9.809  72.038  1.00  0.00     0.170 HD
HETATM   53  H   LIG     1     -11.758  10.121  68.611  1.00  0.00     0.170 HD
BRANCH  50  54
HETATM   54  C   LIG     1     -10.409   8.301  72.411  1.00  0.00     0.036 A 
HETATM   55  C   LIG     1     -11.128   7.259  72.991  1.00  0.00    -0.057 A 
HETATM   56  C   LIG     1     -10.473   6.333  73.796  1.00  0.00    -0.080 A 
HETATM   57  H   LIG     1     -12.192   7.147  72.795  1.00  0.00     0.086 H 
HETATM   58  C   LIG     1      -9.103   6.459  74.032  1.00  0.00    -0.076 A 
HETATM   59  H   LIG     1     -11.032   5.518  74.245  1.00  0.00     0.083 H 
HETATM   60  C   LIG     1      -8.358   7.480  73.424  1.00  0.00    -0.052 A 
HETATM   61  H   LIG     1      -8.618   5.750  74.697  1.00  0.00     0.084 H 
HETATM   62  C   LIG     1      -9.023   8.393  72.590  1.00  0.00    -0.051 A 
HETATM   63  H   LIG     1      -8.472   9.212  72.135  1.00  0.00     0.087 H 
BRANCH  60  64
HETATM   64  C   LIG     1      -6.874   7.592  73.694  1.00  0.00    -0.017 C 
HETATM   65  H   LIG     1      -6.520   6.657  74.152  1.00  0.00     0.047 H 
HETATM   66  H   LIG     1      -6.328   7.654  72.743  1.00  0.00     0.047 H 
BRANCH  64  67
HETATM   67  C   LIG     1      -6.482   8.757  74.574  1.00  0.00    -0.054 A 
HETATM   68  C   LIG     1      -7.238   9.063  75.716  1.00  0.00    -0.075 A 
HETATM   69  C   LIG     1      -6.881  10.129  76.546  1.00  0.00    -0.060 A 
HETATM   70  H   LIG     1      -8.111   8.465  75.969  1.00  0.00     0.084 H 
HETATM   71  C   LIG     1      -5.755  10.893  76.236  1.00  0.00     0.074 A 
HETATM   72  H   LIG     1      -7.473  10.338  77.433  1.00  0.00     0.085 H 
HETATM   73  C   LIG     1      -4.994  10.610  75.099  1.00  0.00    -0.060 A 
HETATM   74  C   LIG     1      -5.357   9.544  74.272  1.00  0.00    -0.075 A 
HETATM   75  H   LIG     1      -4.115  11.205  74.862  1.00  0.00     0.085 H 
HETATM   76  H   LIG     1      -4.753   9.326  73.394  1.00  0.00     0.084 H 
BRANCH  71  77
HETATM   77  S   LIG     1      -5.242  12.189  77.324  1.00  0.00     0.239 S 
HETATM   78  O   LIG     1      -4.031  12.795  76.771  1.00  0.00    -0.206 OA
HETATM   79  O   LIG     1      -5.335  11.756  78.679  1.00  0.00    -0.206 OA
BRANCH  77  80
HETATM   80  N   LIG     1      -6.447  13.347  77.129  1.00  0.00    -0.225 NA
HETATM   81  H   LIG     1      -6.040  14.204  76.760  1.00  0.00     0.136 HD
HETATM   82  H   LIG     1      -6.925  13.477  78.024  1.00  0.00     0.136 HD
ENDBRANCH  77  80
ENDBRANCH  71  77
ENDBRANCH  64  67
ENDBRANCH  60  64
ENDBRANCH  50  54
ENDBRANCH   1  48
TORSDOF 13
ENDMDL
MODEL 6
REMARK minimizedAffinity -5.35041142
REMARK minimizedRMSD -1
REMARK  13 active torsions:
REMARK  status: ('A' for Active; 'I' for Inactive)
REMARK    1  A    between atoms: N_1  and  S_2 
REMARK    2  A    between atoms: S_2  and  C_5 
REMARK    3  A    between atoms: C_8  and  C_9 
REMARK    4  A    between atoms: C_9  and  C_10 
REMARK    5  A    between atoms: C_14  and  N_15 
REMARK       I    between atoms: N_15  and  C_16 
REMARK       I    between atoms: C_16  and  N_18 
REMARK    6  A    between atoms: N_18  and  C_19 
REMARK    7  A    between atoms: C_20  and  C_25 
REMARK    8  A    between atoms: C_25  and  C_27 
REMARK    9  A    between atoms: C_25  and  C_38 
REMARK   10  A    between atoms: C_27  and  N_28 
REMARK       I    between atoms: N_28  and  C_29 
REMARK   11  A    between atoms: C_29  and  C_31 
REMARK   12  A    between atoms: C_34  and  O_35 
REMARK   13  A    between atoms: C_38  and  C_39 
ROOT
HETATM    1  C   LIG     1     -11.696  10.016  69.952  1.00  0.00     0.060 A 
HETATM    2  C   LIG     1     -10.779  10.909  69.372  1.00  0.00    -0.023 A 
HETATM    3  C   LIG     1     -11.032  12.278  69.563  1.00  0.00    -0.057 A 
HETATM    4  C   LIG     1     -12.117  12.695  70.315  1.00  0.00     0.002 A 
HETATM    5  N   LIG     1     -13.031  11.855  70.825  1.00  0.00    -0.271 NA
HETATM    6  C   LIG     1     -12.804  10.540  70.633  1.00  0.00     0.028 A 
HETATM    7  H   LIG     1     -10.367  13.039  69.172  1.00  0.00     0.086 H 
HETATM    8  H   LIG     1     -12.263  13.747  70.539  1.00  0.00     0.114 H 
HETATM    9  H   LIG     1     -13.570   9.890  71.051  1.00  0.00     0.118 H 
ENDROOT
BRANCH   2  10
HETATM   10  C   LIG     1      -9.546  10.482  68.562  1.00  0.00    -0.011 C 
HETATM   11  H   LIG     1      -9.794   9.527  68.075  1.00  0.00     0.050 H 
BRANCH  10  12
HETATM   12  C   LIG     1      -9.167  11.473  67.417  1.00  0.00     0.002 C 
HETATM   13  H   LIG     1      -9.995  12.175  67.252  1.00  0.00     0.065 H 
HETATM   14  H   LIG     1      -9.028  10.922  66.478  1.00  0.00     0.065 H 
BRANCH  12  15
HETATM   15  N   LIG     1      -7.974  12.283  67.668  1.00  0.00    -0.360 N 
HETATM   16  C   LIG     1      -8.007  13.662  67.825  1.00  0.00     0.221 C 
HETATM   17  O   LIG     1      -9.015  14.338  67.648  1.00  0.00    -0.273 OA
HETATM   18  H   LIG     1      -7.186  11.811  68.089  1.00  0.00     0.162 HD
BRANCH  16  19
HETATM   19  C   LIG     1      -6.668  14.256  68.307  1.00  0.00     0.024 C 
HETATM   20  C   LIG     1      -6.564  14.393  69.840  1.00  0.00    -0.051 C 
HETATM   21  C   LIG     1      -5.995  13.180  70.586  1.00  0.00    -0.040 C 
HETATM   22  H   LIG     1      -7.534  14.642  70.286  1.00  0.00     0.034 H 
HETATM   23  H   LIG     1      -5.906  15.245  70.052  1.00  0.00     0.034 H 
HETATM   24  C   LIG     1      -4.753  12.607  69.914  1.00  0.00     0.035 C 
HETATM   25  H   LIG     1      -6.764  12.405  70.679  1.00  0.00     0.036 H 
HETATM   26  H   LIG     1      -5.739  13.503  71.604  1.00  0.00     0.036 H 
HETATM   27  C   LIG     1      -5.033  12.297  68.447  1.00  0.00    -0.040 C 
HETATM   28  H   LIG     1      -4.428  11.702  70.437  1.00  0.00     0.082 H 
HETATM   29  C   LIG     1      -5.447  13.557  67.688  1.00  0.00    -0.051 C 
HETATM   30  H   LIG     1      -5.819  11.537  68.368  1.00  0.00     0.036 H 
HETATM   31  H   LIG     1      -4.132  11.885  67.977  1.00  0.00     0.036 H 
HETATM   32  H   LIG     1      -5.625  13.308  66.636  1.00  0.00     0.034 H 
HETATM   33  H   LIG     1      -4.603  14.262  67.688  1.00  0.00     0.034 H 
HETATM   34  H   LIG     1      -6.669  15.277  67.897  1.00  0.00     0.054 H 
BRANCH  24  35
HETATM   35  O   LIG     1      -3.705  13.569  70.025  1.00  0.00    -0.396 OA
HETATM   36  H   LIG     1      -3.027  13.354  69.362  1.00  0.00     0.210 HD
ENDBRANCH  24  35
ENDBRANCH  16  19
ENDBRANCH  12  15
ENDBRANCH  10  12
BRANCH  10  37
HETATM   37  C   LIG     1      -8.315  10.174  69.464  1.00  0.00    -0.053 C 
HETATM   38  H   LIG     1      -8.629   9.882  70.475  1.00  0.00     0.034 H 
HETATM   39  H   LIG     1      -7.710  11.078  69.599  1.00  0.00     0.034 H 
BRANCH  37  40
HETATM   40  C   LIG     1      -7.442   9.104  68.852  1.00  0.00    -0.053 A 
HETATM   41  C   LIG     1      -6.082   8.798  69.416  1.00  0.00    -0.061 A 
HETATM   42  C   LIG     1      -7.204   7.819  69.605  1.00  0.00    -0.061 A 
HETATM   43  H   LIG     1      -5.746   9.384  70.262  1.00  0.00     0.033 H 
HETATM   44  H   LIG     1      -5.294   8.519  68.725  1.00  0.00     0.033 H 
HETATM   45  H   LIG     1      -7.609   7.710  70.604  1.00  0.00     0.033 H 
HETATM   46  H   LIG     1      -7.215   6.900  69.030  1.00  0.00     0.033 H 
HETATM   47  H   LIG     1      -7.526   9.062  67.771  1.00  0.00     0.040 H 
ENDBRANCH  37  40
ENDBRANCH  10  37
ENDBRANCH   2  10
BRANCH   1  48
HETATM   48  N   LIG     1     -11.553   8.622  69.829  1.00  0.00    -0.307 N 
HETATM   49  C   LIG     1     -10.816   7.820  70.676  1.00  0.00     0.325 C 
HETATM   50  N   LIG     1     -10.438   8.435  71.853  1.00  0.00    -0.309 N 
HETATM   51  O   LIG     1     -10.600   6.650  70.375  1.00  0.00    -0.247 OA
HETATM   52  H   LIG     1     -11.003   9.224  72.129  1.00  0.00     0.170 HD
HETATM   53  H   LIG     1     -11.618   8.230  68.892  1.00  0.00     0.170 HD
BRANCH  50  54
HETATM   54  C   LIG     1      -9.733   7.781  72.870  1.00  0.00     0.036 A 
HETATM   55  C   LIG     1     -10.406   6.996  73.802  1.00  0.00    -0.057 A 
HETATM   56  C   LIG     1      -9.689   6.353  74.806  1.00  0.00    -0.080 A 
HETATM   57  H   LIG     1     -11.481   6.857  73.733  1.00  0.00     0.086 H 
HETATM   58  C   LIG     1      -8.304   6.509  74.886  1.00  0.00    -0.076 A 
HETATM   59  H   LIG     1     -10.212   5.737  75.531  1.00  0.00     0.083 H 
HETATM   60  C   LIG     1      -7.609   7.266  73.931  1.00  0.00    -0.052 A 
HETATM   61  H   LIG     1      -7.768   6.033  75.702  1.00  0.00     0.084 H 
HETATM   62  C   LIG     1      -8.337   7.887  72.904  1.00  0.00    -0.051 A 
HETATM   63  H   LIG     1      -7.823   8.505  72.173  1.00  0.00     0.087 H 
BRANCH  60  64
HETATM   64  C   LIG     1      -6.107   7.416  74.039  1.00  0.00    -0.017 C 
HETATM   65  H   LIG     1      -5.758   6.897  74.942  1.00  0.00     0.047 H 
HETATM   66  H   LIG     1      -5.622   6.883  73.211  1.00  0.00     0.047 H 
BRANCH  64  67
HETATM   67  C   LIG     1      -5.620   8.847  74.068  1.00  0.00    -0.054 A 
HETATM   68  C   LIG     1      -5.838   9.642  75.204  1.00  0.00    -0.075 A 
HETATM   69  C   LIG     1      -5.381  10.963  75.250  1.00  0.00    -0.060 A 
HETATM   70  H   LIG     1      -6.360   9.232  76.065  1.00  0.00     0.084 H 
HETATM   71  C   LIG     1      -4.698  11.492  74.154  1.00  0.00     0.074 A 
HETATM   72  H   LIG     1      -5.549  11.555  76.146  1.00  0.00     0.085 H 
HETATM   73  C   LIG     1      -4.480  10.719  73.011  1.00  0.00    -0.060 A 
HETATM   74  C   LIG     1      -4.939   9.401  72.970  1.00  0.00    -0.075 A 
HETATM   75  H   LIG     1      -3.944  11.134  72.161  1.00  0.00     0.085 H 
HETATM   76  H   LIG     1      -4.756   8.805  72.079  1.00  0.00     0.084 H 
BRANCH  71  77
HETATM   77  S   LIG     1      -4.041  13.131  74.234  1.00  0.00     0.239 S 
HETATM   78  O   LIG     1      -3.467  13.456  72.928  1.00  0.00    -0.206 OA
HETATM   79  O   LIG     1      -3.328  13.314  75.454  1.00  0.00    -0.206 OA
BRANCH  77  80
HETATM   80  N   LIG     1      -5.419  14.087  74.362  1.00  0.00    -0.225 NA
HETATM   81  H   LIG     1      -5.479  14.710  73.558  1.00  0.00     0.136 HD
HETATM   82  H   LIG     1      -5.395  14.581  75.257  1.00  0.00     0.136 HD
ENDBRANCH  77  80
ENDBRANCH  71  77
ENDBRANCH  64  67
ENDBRANCH  60  64
ENDBRANCH  50  54
ENDBRANCH   1  48
TORSDOF 13
ENDMDL
MODEL 7
REMARK minimizedAffinity -5.27272844
REMARK minimizedRMSD -1
REMARK  13 active torsions:
REMARK  status: ('A' for Active; 'I' for Inactive)
REMARK    1  A    between atoms: N_1  and  S_2 
REMARK    2  A    between atoms: S_2  and  C_5 
REMARK    3  A    between atoms: C_8  and  C_9 
REMARK    4  A    between atoms: C_9  and  C_10 
REMARK    5  A    between atoms: C_14  and  N_15 
REMARK       I    between atoms: N_15  and  C_16 
REMARK       I    between atoms: C_16  and  N_18 
REMARK    6  A    between atoms: N_18  and  C_19 
REMARK    7  A    between atoms: C_20  and  C_25 
REMARK    8  A    between atoms: C_25  and  C_27 
REMARK    9  A    between atoms: C_25  and  C_38 
REMARK   10  A    between atoms: C_27  and  N_28 
REMARK       I    between atoms: N_28  and  C_29 
REMARK   11  A    between atoms: C_29  and  C_31 
REMARK   12  A    between atoms: C_34  and  O_35 
REMARK   13  A    between atoms: C_38  and  C_39 
ROOT
HETATM    1  C   LIG     1     -12.460   9.495  70.865  1.00  0.00     0.060 A 
HETATM    2  C   LIG     1     -11.586  10.179  70.003  1.00  0.00    -0.023 A 
HETATM    3  C   LIG     1     -11.649  11.582  70.031  1.00  0.00    -0.057 A 
HETATM    4  C   LIG     1     -12.512  12.230  70.897  1.00  0.00     0.002 A 
HETATM    5  N   LIG     1     -13.391  11.590  71.683  1.00  0.00    -0.271 NA
HETATM    6  C   LIG     1     -13.348  10.242  71.650  1.00  0.00     0.028 A 
HETATM    7  H   LIG     1     -10.997  12.194  69.417  1.00  0.00     0.086 H 
HETATM    8  H   LIG     1     -12.499  13.312  70.985  1.00  0.00     0.114 H 
HETATM    9  H   LIG     1     -14.081   9.758  72.292  1.00  0.00     0.118 H 
ENDROOT
BRANCH   2  10
HETATM   10  C   LIG     1     -10.591   9.494  69.054  1.00  0.00    -0.011 C 
HETATM   11  H   LIG     1     -11.003   8.504  68.812  1.00  0.00     0.050 H 
BRANCH  10  12
HETATM   12  C   LIG     1     -10.400  10.235  67.694  1.00  0.00     0.002 C 
HETATM   13  H   LIG     1     -11.149  11.032  67.604  1.00  0.00     0.065 H 
HETATM   14  H   LIG     1     -10.577   9.540  66.863  1.00  0.00     0.065 H 
BRANCH  12  15
HETATM   15  N   LIG     1      -9.092  10.866  67.509  1.00  0.00    -0.360 N 
HETATM   16  C   LIG     1      -8.897  12.240  67.539  1.00  0.00     0.221 C 
HETATM   17  O   LIG     1      -9.815  13.051  67.601  1.00  0.00    -0.273 OA
HETATM   18  H   LIG     1      -8.282  10.302  67.724  1.00  0.00     0.162 HD
BRANCH  16  19
HETATM   19  C   LIG     1      -7.410  12.648  67.552  1.00  0.00     0.024 C 
HETATM   20  C   LIG     1      -6.864  12.965  68.959  1.00  0.00    -0.051 C 
HETATM   21  C   LIG     1      -6.276  11.780  69.735  1.00  0.00    -0.040 C 
HETATM   22  H   LIG     1      -7.628  13.437  69.587  1.00  0.00     0.034 H 
HETATM   23  H   LIG     1      -6.065  13.708  68.844  1.00  0.00     0.034 H 
HETATM   24  C   LIG     1      -5.360  10.913  68.878  1.00  0.00     0.035 C 
HETATM   25  H   LIG     1      -7.085  11.170  70.155  1.00  0.00     0.036 H 
HETATM   26  H   LIG     1      -5.704  12.183  70.581  1.00  0.00     0.036 H 
HETATM   27  C   LIG     1      -6.079  10.467  67.608  1.00  0.00    -0.040 C 
HETATM   28  H   LIG     1      -5.026  10.042  69.450  1.00  0.00     0.082 H 
HETATM   29  C   LIG     1      -6.515  11.670  66.773  1.00  0.00    -0.051 C 
HETATM   30  H   LIG     1      -6.949   9.854  67.867  1.00  0.00     0.036 H 
HETATM   31  H   LIG     1      -5.408   9.845  67.004  1.00  0.00     0.036 H 
HETATM   32  H   LIG     1      -7.013  11.319  65.862  1.00  0.00     0.034 H 
HETATM   33  H   LIG     1      -5.619  12.208  66.434  1.00  0.00     0.034 H 
HETATM   34  H   LIG     1      -7.389  13.590  66.984  1.00  0.00     0.054 H 
BRANCH  24  35
HETATM   35  O   LIG     1      -4.204  11.682  68.548  1.00  0.00    -0.396 OA
HETATM   36  H   LIG     1      -3.774  11.265  67.782  1.00  0.00     0.210 HD
ENDBRANCH  24  35
ENDBRANCH  16  19
ENDBRANCH  12  15
ENDBRANCH  10  12
BRANCH  10  37
HETATM   37  C   LIG     1      -9.217   9.210  69.732  1.00  0.00    -0.053 C 
HETATM   38  H   LIG     1      -9.287   9.311  70.823  1.00  0.00     0.034 H 
HETATM   39  H   LIG     1      -8.480   9.957  69.419  1.00  0.00     0.034 H 
BRANCH  37  40
HETATM   40  C   LIG     1      -8.696   7.842  69.360  1.00  0.00    -0.053 A 
HETATM   41  C   LIG     1      -7.220   7.559  69.326  1.00  0.00    -0.061 A 
HETATM   42  C   LIG     1      -8.065   6.975  70.420  1.00  0.00    -0.061 A 
HETATM   43  H   LIG     1      -6.547   8.375  69.559  1.00  0.00     0.033 H 
HETATM   44  H   LIG     1      -6.849   6.876  68.570  1.00  0.00     0.033 H 
HETATM   45  H   LIG     1      -7.934   7.373  71.420  1.00  0.00     0.033 H 
HETATM   46  H   LIG     1      -8.307   5.918  70.403  1.00  0.00     0.033 H 
HETATM   47  H   LIG     1      -9.287   7.364  68.586  1.00  0.00     0.040 H 
ENDBRANCH  37  40
ENDBRANCH  10  37
ENDBRANCH   2  10
BRANCH   1  48
HETATM   48  N   LIG     1     -12.493   8.090  70.926  1.00  0.00    -0.307 N 
HETATM   49  C   LIG     1     -11.646   7.306  71.683  1.00  0.00     0.325 C 
HETATM   50  N   LIG     1     -10.918   8.005  72.625  1.00  0.00    -0.309 N 
HETATM   51  O   LIG     1     -11.633   6.090  71.521  1.00  0.00    -0.247 OA
HETATM   52  H   LIG     1     -11.311   8.891  72.905  1.00  0.00     0.170 HD
HETATM   53  H   LIG     1     -12.836   7.598  70.104  1.00  0.00     0.170 HD
BRANCH  50  54
HETATM   54  C   LIG     1     -10.044   7.392  73.530  1.00  0.00     0.036 A 
HETATM   55  C   LIG     1     -10.443   6.265  74.244  1.00  0.00    -0.057 A 
HETATM   56  C   LIG     1      -9.562   5.668  75.139  1.00  0.00    -0.080 A 
HETATM   57  H   LIG     1     -11.427   5.830  74.084  1.00  0.00     0.086 H 
HETATM   58  C   LIG     1      -8.289   6.208  75.330  1.00  0.00    -0.076 A 
HETATM   59  H   LIG     1      -9.870   4.787  75.693  1.00  0.00     0.083 H 
HETATM   60  C   LIG     1      -7.859   7.319  74.591  1.00  0.00    -0.052 A 
HETATM   61  H   LIG     1      -7.630   5.752  76.065  1.00  0.00     0.084 H 
HETATM   62  C   LIG     1      -8.746   7.897  73.668  1.00  0.00    -0.051 A 
HETATM   63  H   LIG     1      -8.445   8.779  73.108  1.00  0.00     0.087 H 
BRANCH  60  64
HETATM   64  C   LIG     1      -6.473   7.882  74.816  1.00  0.00    -0.017 C 
HETATM   65  H   LIG     1      -6.559   8.898  75.225  1.00  0.00     0.047 H 
HETATM   66  H   LIG     1      -5.965   7.311  75.604  1.00  0.00     0.047 H 
BRANCH  64  67
HETATM   67  C   LIG     1      -5.601   7.916  73.581  1.00  0.00    -0.054 A 
HETATM   68  C   LIG     1      -5.273   6.723  72.918  1.00  0.00    -0.075 A 
HETATM   69  C   LIG     1      -4.479   6.740  71.768  1.00  0.00    -0.060 A 
HETATM   70  H   LIG     1      -5.641   5.771  73.294  1.00  0.00     0.084 H 
HETATM   71  C   LIG     1      -4.013   7.958  71.273  1.00  0.00     0.074 A 
HETATM   72  H   LIG     1      -4.249   5.804  71.263  1.00  0.00     0.085 H 
HETATM   73  C   LIG     1      -4.322   9.156  71.923  1.00  0.00    -0.060 A 
HETATM   74  C   LIG     1      -5.114   9.133  73.072  1.00  0.00    -0.075 A 
HETATM   75  H   LIG     1      -3.961  10.104  71.532  1.00  0.00     0.085 H 
HETATM   76  H   LIG     1      -5.357  10.071  73.566  1.00  0.00     0.084 H 
BRANCH  71  77
HETATM   77  S   LIG     1      -3.081   8.000  69.771  1.00  0.00     0.239 S 
HETATM   78  O   LIG     1      -2.370   9.278  69.712  1.00  0.00    -0.206 OA
HETATM   79  O   LIG     1      -3.870   7.509  68.691  1.00  0.00    -0.206 OA
BRANCH  77  80
HETATM   80  N   LIG     1      -1.890   6.842  70.031  1.00  0.00    -0.225 NA
HETATM   81  H   LIG     1      -0.972   7.282  70.002  1.00  0.00     0.136 HD
HETATM   82  H   LIG     1      -2.002   6.094  69.343  1.00  0.00     0.136 HD
ENDBRANCH  77  80
ENDBRANCH  71  77
ENDBRANCH  64  67
ENDBRANCH  60  64
ENDBRANCH  50  54
ENDBRANCH   1  48
TORSDOF 13
ENDMDL
MODEL 8
REMARK minimizedAffinity -5.19720268
REMARK minimizedRMSD -1
REMARK  13 active torsions:
REMARK  status: ('A' for Active; 'I' for Inactive)
REMARK    1  A    between atoms: N_1  and  S_2 
REMARK    2  A    between atoms: S_2  and  C_5 
REMARK    3  A    between atoms: C_8  and  C_9 
REMARK    4  A    between atoms: C_9  and  C_10 
REMARK    5  A    between atoms: C_14  and  N_15 
REMARK       I    between atoms: N_15  and  C_16 
REMARK       I    between atoms: C_16  and  N_18 
REMARK    6  A    between atoms: N_18  and  C_19 
REMARK    7  A    between atoms: C_20  and  C_25 
REMARK    8  A    between atoms: C_25  and  C_27 
REMARK    9  A    between atoms: C_25  and  C_38 
REMARK   10  A    between atoms: C_27  and  N_28 
REMARK       I    between atoms: N_28  and  C_29 
REMARK   11  A    between atoms: C_29  and  C_31 
REMARK   12  A    between atoms: C_34  and  O_35 
REMARK   13  A    between atoms: C_38  and  C_39 
ROOT
HETATM    1  C   LIG     1     -10.525  11.291  67.934  1.00  0.00     0.060 A 
HETATM    2  C   LIG     1      -9.312  11.969  68.140  1.00  0.00    -0.023 A 
HETATM    3  C   LIG     1      -9.400  13.351  68.382  1.00  0.00    -0.057 A 
HETATM    4  C   LIG     1     -10.633  13.977  68.441  1.00  0.00     0.002 A 
HETATM    5  N   LIG     1     -11.794  13.353  68.189  1.00  0.00    -0.271 NA
HETATM    6  C   LIG     1     -11.716  12.029  67.940  1.00  0.00     0.028 A 
HETATM    7  H   LIG     1      -8.519  13.952  68.574  1.00  0.00     0.086 H 
HETATM    8  H   LIG     1     -10.708  15.025  68.716  1.00  0.00     0.114 H 
HETATM    9  H   LIG     1     -12.675  11.559  67.731  1.00  0.00     0.118 H 
ENDROOT
BRANCH   2  10
HETATM   10  C   LIG     1      -7.929  11.301  68.117  1.00  0.00    -0.011 C 
HETATM   11  H   LIG     1      -8.092  10.217  68.199  1.00  0.00     0.050 H 
BRANCH  10  12
HETATM   12  C   LIG     1      -7.139  11.528  66.791  1.00  0.00     0.002 C 
HETATM   13  H   LIG     1      -6.136  11.093  66.884  1.00  0.00     0.065 H 
HETATM   14  H   LIG     1      -7.002  12.603  66.617  1.00  0.00     0.065 H 
BRANCH  12  15
HETATM   15  N   LIG     1      -7.744  10.932  65.598  1.00  0.00    -0.360 N 
HETATM   16  C   LIG     1      -7.862   9.563  65.405  1.00  0.00     0.221 C 
HETATM   17  O   LIG     1      -7.364   8.730  66.155  1.00  0.00    -0.273 OA
HETATM   18  H   LIG     1      -8.401  11.507  65.089  1.00  0.00     0.162 HD
BRANCH  16  19
HETATM   19  C   LIG     1      -8.737   9.188  64.191  1.00  0.00     0.024 C 
HETATM   20  C   LIG     1      -9.786  10.258  63.826  1.00  0.00    -0.051 C 
HETATM   21  C   LIG     1      -9.330  11.334  62.834  1.00  0.00    -0.040 C 
HETATM   22  H   LIG     1     -10.172  10.760  64.719  1.00  0.00     0.034 H 
HETATM   23  H   LIG     1     -10.642   9.740  63.375  1.00  0.00     0.034 H 
HETATM   24  C   LIG     1      -8.572  10.754  61.645  1.00  0.00     0.035 C 
HETATM   25  H   LIG     1      -8.710  12.077  63.348  1.00  0.00     0.036 H 
HETATM   26  H   LIG     1     -10.225  11.857  62.471  1.00  0.00     0.036 H 
HETATM   27  C   LIG     1      -7.412   9.886  62.121  1.00  0.00    -0.040 C 
HETATM   28  H   LIG     1      -8.203  11.563  61.005  1.00  0.00     0.082 H 
HETATM   29  C   LIG     1      -7.911   8.725  62.980  1.00  0.00    -0.051 C 
HETATM   30  H   LIG     1      -6.698  10.494  62.689  1.00  0.00     0.036 H 
HETATM   31  H   LIG     1      -6.876   9.477  61.256  1.00  0.00     0.036 H 
HETATM   32  H   LIG     1      -7.058   8.111  63.294  1.00  0.00     0.034 H 
HETATM   33  H   LIG     1      -8.537   8.070  62.358  1.00  0.00     0.034 H 
HETATM   34  H   LIG     1      -9.293   8.301  64.531  1.00  0.00     0.054 H 
BRANCH  24  35
HETATM   35  O   LIG     1      -9.487   9.977  60.872  1.00  0.00    -0.396 OA
HETATM   36  H   LIG     1      -8.970   9.378  60.306  1.00  0.00     0.210 HD
ENDBRANCH  24  35
ENDBRANCH  16  19
ENDBRANCH  12  15
ENDBRANCH  10  12
BRANCH  10  37
HETATM   37  C   LIG     1      -7.062  11.678  69.355  1.00  0.00    -0.053 C 
HETATM   38  H   LIG     1      -7.532  12.483  69.936  1.00  0.00     0.034 H 
HETATM   39  H   LIG     1      -6.097  12.081  69.031  1.00  0.00     0.034 H 
BRANCH  37  40
HETATM   40  C   LIG     1      -6.806  10.474  70.230  1.00  0.00    -0.053 A 
HETATM   41  C   LIG     1      -6.814   9.084  69.656  1.00  0.00    -0.061 A 
HETATM   42  C   LIG     1      -5.516   9.708  70.080  1.00  0.00    -0.061 A 
HETATM   43  H   LIG     1      -7.028   8.978  68.600  1.00  0.00     0.033 H 
HETATM   44  H   LIG     1      -7.200   8.280  70.272  1.00  0.00     0.033 H 
HETATM   45  H   LIG     1      -4.820   9.993  69.299  1.00  0.00     0.033 H 
HETATM   46  H   LIG     1      -5.032   9.371  70.990  1.00  0.00     0.033 H 
HETATM   47  H   LIG     1      -7.233  10.578  71.223  1.00  0.00     0.040 H 
ENDBRANCH  37  40
ENDBRANCH  10  37
ENDBRANCH   2  10
BRANCH   1  48
HETATM   48  N   LIG     1     -10.568   9.908  67.680  1.00  0.00    -0.307 N 
HETATM   49  C   LIG     1     -10.492   8.920  68.641  1.00  0.00     0.325 C 
HETATM   50  N   LIG     1     -10.658   9.373  69.934  1.00  0.00    -0.309 N 
HETATM   51  O   LIG     1     -10.348   7.749  68.302  1.00  0.00    -0.247 OA
HETATM   52  H   LIG     1     -11.148  10.250  70.025  1.00  0.00     0.170 HD
HETATM   53  H   LIG     1     -10.220   9.591  66.778  1.00  0.00     0.170 HD
BRANCH  50  54
HETATM   54  C   LIG     1     -10.670   8.527  71.049  1.00  0.00     0.036 A 
HETATM   55  C   LIG     1     -11.713   7.625  71.238  1.00  0.00    -0.057 A 
HETATM   56  C   LIG     1     -11.710   6.792  72.352  1.00  0.00    -0.080 A 
HETATM   57  H   LIG     1     -12.514   7.546  70.507  1.00  0.00     0.086 H 
HETATM   58  C   LIG     1     -10.672   6.873  73.282  1.00  0.00    -0.076 A 
HETATM   59  H   LIG     1     -12.521   6.085  72.499  1.00  0.00     0.083 H 
HETATM   60  C   LIG     1      -9.595   7.750  73.085  1.00  0.00    -0.052 A 
HETATM   61  H   LIG     1     -10.710   6.243  74.167  1.00  0.00     0.084 H 
HETATM   62  C   LIG     1      -9.593   8.566  71.943  1.00  0.00    -0.051 A 
HETATM   63  H   LIG     1      -8.785   9.276  71.787  1.00  0.00     0.087 H 
BRANCH  60  64
HETATM   64  C   LIG     1      -8.482   7.816  74.107  1.00  0.00    -0.017 C 
HETATM   65  H   LIG     1      -8.529   8.781  74.629  1.00  0.00     0.047 H 
HETATM   66  H   LIG     1      -8.658   7.070  74.894  1.00  0.00     0.047 H 
BRANCH  64  67
HETATM   67  C   LIG     1      -7.095   7.625  73.537  1.00  0.00    -0.054 A 
HETATM   68  C   LIG     1      -6.834   6.559  72.662  1.00  0.00    -0.075 A 
HETATM   69  C   LIG     1      -5.560   6.377  72.116  1.00  0.00    -0.060 A 
HETATM   70  H   LIG     1      -7.628   5.865  72.394  1.00  0.00     0.084 H 
HETATM   71  C   LIG     1      -4.539   7.270  72.444  1.00  0.00     0.074 A 
HETATM   72  H   LIG     1      -5.385   5.553  71.429  1.00  0.00     0.085 H 
HETATM   73  C   LIG     1      -4.777   8.332  73.320  1.00  0.00    -0.060 A 
HETATM   74  C   LIG     1      -6.051   8.508  73.863  1.00  0.00    -0.075 A 
HETATM   75  H   LIG     1      -3.980   9.028  73.571  1.00  0.00     0.085 H 
HETATM   76  H   LIG     1      -6.229   9.343  74.538  1.00  0.00     0.084 H 
BRANCH  71  77
HETATM   77  S   LIG     1      -2.947   7.102  71.694  1.00  0.00     0.239 S 
HETATM   78  O   LIG     1      -2.090   8.174  72.200  1.00  0.00    -0.206 OA
HETATM   79  O   LIG     1      -3.088   6.822  70.304  1.00  0.00    -0.206 OA
BRANCH  77  80
HETATM   80  N   LIG     1      -2.348   5.692  72.387  1.00  0.00    -0.225 NA
HETATM   81  H   LIG     1      -1.502   5.902  72.913  1.00  0.00     0.136 HD
HETATM   82  H   LIG     1      -2.205   4.998  71.649  1.00  0.00     0.136 HD
ENDBRANCH  77  80
ENDBRANCH  71  77
ENDBRANCH  64  67
ENDBRANCH  60  64
ENDBRANCH  50  54
ENDBRANCH   1  48
TORSDOF 13
ENDMDL
