ligands/mol6.pdb
  rDOCK(R)          3D
libRbt.so/2013.1/901 2013/11/27
 49 53  0  0  0  0  0  0  0  0999 V2000
  -13.4892  -18.8412   -1.0038 N   0  0  0  0  0  0
  -12.6129  -20.1293   -0.3699 S   0  0  0  0  0  0
  -11.3892  -20.1934   -1.1687 O   0  0  0  0  0  0
  -12.5993  -19.9316    1.0418 O   0  0  0  0  0  0
  -13.6108  -21.5303   -0.7775 C   0  0  0  0  0  0
  -14.3865  -21.5175   -1.9374 C   0  0  0  0  0  0
  -15.2244  -22.6009   -2.2163 C   0  0  0  0  0  0
  -15.2898  -23.7002   -1.3463 C   0  0  0  0  0  0
  -16.2123  -24.8578   -1.6549 C   0  0  0  0  0  0
  -15.8722  -26.1418   -0.9314 C   0  0  0  0  0  0
  -15.8284  -26.1622    0.4705 C   0  0  0  0  0  0
  -15.5138  -27.3338    1.1609 C   0  0  0  0  0  0
  -15.2915  -28.5155    0.4619 C   0  0  0  0  0  0
  -15.3689  -28.5189   -0.9284 C   0  0  0  0  0  0
  -15.1486  -29.6994   -1.6477 N   0  0  0  0  0  0
  -14.0278  -30.4881   -1.4839 C   0  0  0  0  0  0
  -13.6290  -30.9607   -0.4235 O   0  0  0  0  0  0
  -13.3727  -30.7926   -2.6598 N   0  0  0  0  0  0
  -12.5194  -29.9226   -3.3616 C   0  0  0  0  0  0
  -11.2814  -30.3504   -3.8714 C   0  0  0  0  0  0
  -10.5203  -29.3881   -4.5566 C   0  0  0  0  0  0
  -10.9755  -28.0869   -4.6781 C   0  0  0  0  0  0
  -12.1792  -27.6805   -4.2465 N   0  0  0  0  0  0
  -12.9234  -28.6024   -3.6018 C   0  0  0  0  0  0
  -10.7284  -31.7757   -3.7254 C   0  0  0  0  0  0
  -10.4589  -32.2022   -2.2490 C   0  0  0  0  0  0
   -9.4423  -31.4131   -1.5510 N   0  0  0  0  0  0
   -8.0787  -31.5743   -1.7544 C   0  0  0  0  0  0
   -7.4989  -31.2024   -2.7692 O   0  0  0  0  0  0
   -7.3499  -32.2072   -0.5517 C   0  0  0  0  0  0
   -7.8080  -33.6450   -0.2325 C   0  0  0  0  0  0
   -7.0485  -34.7672   -0.9498 C   0  0  0  0  0  0
   -5.5382  -34.5614   -0.9275 C   0  0  0  0  0  0
   -5.0930  -34.6889    0.4227 O   0  0  0  0  0  0
   -5.1769  -33.1846   -1.4756 C   0  0  0  0  0  0
   -5.8210  -32.0764   -0.6438 C   0  0  0  0  0  0
  -11.6023  -32.8341   -4.4617 C   0  0  0  0  0  0
  -11.5122  -32.6704   -5.9608 C   0  0  0  0  0  0
  -10.8448  -33.7129   -6.8143 C   0  0  0  0  0  0
  -12.3374  -33.5611   -6.8556 C   0  0  0  0  0  0
  -15.6175  -27.3332   -1.6293 C   0  0  0  0  0  0
  -14.4935  -23.6992   -0.1882 C   0  0  0  0  0  0
  -13.6557  -22.6191    0.0966 C   0  0  0  0  0  0
  -13.5761  -18.9499   -2.0124 H   0  0  0  0  0  0
  -13.0356  -17.9673   -0.7274 H   0  0  0  0  0  0
  -15.9659  -30.1769   -1.9961 H   0  0  0  0  0  0
  -13.1940  -31.7910   -2.7500 H   0  0  0  0  0  0
   -9.7311  -30.5111   -1.1994 H   0  0  0  0  0  0
   -5.2163  -35.6145    0.6944 H   0  0  0  0  0  0
  1  2  1  0  0  0
  1 44  1  0  0  0
  1 45  1  0  0  0
  2  3  2  0  0  0
  2  4  2  0  0  0
  2  5  1  0  0  0
  5  6  2  0  0  0
  5 43  1  0  0  0
  6  7  1  0  0  0
  7  8  2  0  0  0
  8  9  1  0  0  0
  8 42  1  0  0  0
  9 10  1  0  0  0
 10 11  2  0  0  0
 10 41  1  0  0  0
 11 12  1  0  0  0
 12 13  2  0  0  0
 13 14  1  0  0  0
 14 15  1  0  0  0
 14 41  2  0  0  0
 15 16  1  0  0  0
 15 46  1  0  0  0
 16 17  2  0  0  0
 16 18  1  0  0  0
 18 19  1  0  0  0
 18 47  1  0  0  0
 19 20  2  0  0  0
 19 24  1  0  0  0
 20 21  1  0  0  0
 20 25  1  0  0  0
 21 22  2  0  0  0
 22 23  1  0  0  0
 23 24  2  0  0  0
 25 26  1  0  0  0
 25 37  1  0  0  0
 26 27  1  0  0  0
 27 28  1  0  0  0
 27 48  1  0  0  0
 28 29  2  0  0  0
 28 30  1  0  0  0
 30 31  1  0  0  0
 30 36  1  0  0  0
 31 32  1  0  0  0
 32 33  1  0  0  0
 33 34  1  0  0  0
 33 35  1  0  0  0
 34 49  1  0  0  0
 35 36  1  0  0  0
 37 38  1  0  0  0
 38 39  1  0  0  0
 38 40  1  0  0  0
 39 40  1  0  0  0
 42 43  2  0  0  0
M  END
>  <AUTHOR>
    GENERATED BY OPEN BABEL 2.3.2

>  <CHROM.1>
51.71894434,31.19977543,160.68621398,57.98845341,-52.37020562,54.85236686
77.86151843,134.92858853,-63.42729982,-62.91898789,68.72958694,-77.00431293
72.87741775,63.51702367,67.47497909,112.36417062,-11.78129654,-28.26359597
-1.83669771,-2.06196393,0.32438915,-2.82576631

>  <COMPND>
    UNNAMED

>  <MASTER>
        0    0    0    0    0    0    0    0   82    0   82    0

>  <Name>
ligands/mol6.pdb

>  <RI>
2.2834e+07

>  <Rbt.Current_Directory>
/home/rodrigo/Desktop/Rodrigo/Proyectos/test_OCONDOR/OCONDOR

>  <Rbt.Executable>
rbdock ($Id: //depot/dev/client3/rdock/2013.1/src/exe/rbdock.cxx#4 $)

>  <Rbt.Library>
libRbt.so (2013.1, Build901 2013/11/27)

>  <Rbt.Parameter_File>
dock.prm

>  <Rbt.Receptor>
rdock.prm

>  <SCORE>
-15.8987

>  <SCORE.INTER>
-12.2128

>  <SCORE.INTER.CONST>
1

>  <SCORE.INTER.POLAR>
-1.11599

>  <SCORE.INTER.REPUL>
0.00958297

>  <SCORE.INTER.ROT>
15

>  <SCORE.INTER.VDW>
-28.8663

>  <SCORE.INTER.norm>
-0.284018

>  <SCORE.INTRA>
-3.68588

>  <SCORE.INTRA.DIHEDRAL>
-4.44489

>  <SCORE.INTRA.DIHEDRAL.0>
15.1377

>  <SCORE.INTRA.POLAR>
0

>  <SCORE.INTRA.POLAR.0>
0

>  <SCORE.INTRA.REPUL>
0

>  <SCORE.INTRA.REPUL.0>
0

>  <SCORE.INTRA.VDW>
-1.46343

>  <SCORE.INTRA.VDW.0>
-4.46419

>  <SCORE.INTRA.norm>
-0.0857181

>  <SCORE.RESTR>
0

>  <SCORE.RESTR.CAVITY>
0

>  <SCORE.RESTR.norm>
0

>  <SCORE.SYSTEM>
0

>  <SCORE.SYSTEM.CONST>
0

>  <SCORE.SYSTEM.DIHEDRAL>
0

>  <SCORE.SYSTEM.norm>
0

>  <SCORE.heavy>
43

>  <SCORE.norm>
-0.369736

$$$$
ligands/mol6.pdb
  rDOCK(R)          3D
libRbt.so/2013.1/901 2013/11/27
 49 53  0  0  0  0  0  0  0  0999 V2000
  -10.9276  -19.9390   -1.0189 N   0  0  0  0  0  0
  -12.1779  -19.5561    0.0389 S   0  0  0  0  0  0
  -11.6179  -19.7345    1.3784 O   0  0  0  0  0  0
  -12.7021  -18.3106   -0.4149 O   0  0  0  0  0  0
  -13.3506  -20.8481   -0.2443 C   0  0  0  0  0  0
  -14.6113  -20.5423   -0.7585 C   0  0  0  0  0  0
  -15.5557  -21.5608   -0.9149 C   0  0  0  0  0  0
  -15.2481  -22.8847   -0.5653 C   0  0  0  0  0  0
  -16.2858  -23.9724   -0.7268 C   0  0  0  0  0  0
  -15.8938  -25.3073   -0.1334 C   0  0  0  0  0  0
  -15.3934  -25.3690    1.1756 C   0  0  0  0  0  0
  -15.0217  -26.5883    1.7442 C   0  0  0  0  0  0
  -15.1957  -27.7704    1.0323 C   0  0  0  0  0  0
  -15.7268  -27.7284   -0.2542 C   0  0  0  0  0  0
  -15.9091  -28.9085   -0.9848 N   0  0  0  0  0  0
  -15.1691  -29.2274   -2.1054 C   0  0  0  0  0  0
  -14.8785  -28.4603   -3.0185 O   0  0  0  0  0  0
  -14.6850  -30.5198   -2.1154 N   0  0  0  0  0  0
  -13.4779  -30.9383   -1.5277 C   0  0  0  0  0  0
  -12.2306  -30.6313   -2.0981 C   0  0  0  0  0  0
  -11.0967  -31.1031   -1.4152 C   0  0  0  0  0  0
  -11.2324  -31.8568   -0.2626 C   0  0  0  0  0  0
  -12.4133  -32.1081    0.3228 N   0  0  0  0  0  0
  -13.5062  -31.6445   -0.3176 C   0  0  0  0  0  0
  -12.0427  -29.8282   -3.3936 C   0  0  0  0  0  0
  -11.3380  -28.4513   -3.1887 C   0  0  0  0  0  0
  -11.1883  -27.6445   -4.4012 N   0  0  0  0  0  0
  -11.9398  -26.5061   -4.6578 C   0  0  0  0  0  0
  -13.1427  -26.5308   -4.8959 O   0  0  0  0  0  0
  -11.1292  -25.1987   -4.5491 C   0  0  0  0  0  0
  -11.7092  -24.0356   -5.3796 C   0  0  0  0  0  0
  -12.7385  -23.1497   -4.6681 C   0  0  0  0  0  0
  -12.3099  -22.7701   -3.2553 C   0  0  0  0  0  0
  -11.1693  -21.9174   -3.3518 O   0  0  0  0  0  0
  -11.9706  -24.0172   -2.4451 C   0  0  0  0  0  0
  -10.8307  -24.8005   -3.0946 C   0  0  0  0  0  0
  -11.3403  -30.6539   -4.5120 C   0  0  0  0  0  0
  -12.1100  -31.9154   -4.8258 C   0  0  0  0  0  0
  -12.2532  -32.4028   -6.2409 C   0  0  0  0  0  0
  -11.3656  -33.1444   -5.2844 C   0  0  0  0  0  0
  -16.0383  -26.5031   -0.8548 C   0  0  0  0  0  0
  -13.9696  -23.1747   -0.0584 C   0  0  0  0  0  0
  -13.0225  -22.1612    0.1015 C   0  0  0  0  0  0
  -10.0712  -19.4782   -0.7175 H   0  0  0  0  0  0
  -11.2115  -19.6869   -1.9685 H   0  0  0  0  0  0
  -16.2996  -29.6939   -0.4867 H   0  0  0  0  0  0
  -15.4333  -31.2075   -2.1788 H   0  0  0  0  0  0
  -10.2981  -27.7002   -4.8756 H   0  0  0  0  0  0
  -10.9688  -21.5807   -2.4619 H   0  0  0  0  0  0
  1  2  1  0  0  0
  1 44  1  0  0  0
  1 45  1  0  0  0
  2  3  2  0  0  0
  2  4  2  0  0  0
  2  5  1  0  0  0
  5  6  2  0  0  0
  5 43  1  0  0  0
  6  7  1  0  0  0
  7  8  2  0  0  0
  8  9  1  0  0  0
  8 42  1  0  0  0
  9 10  1  0  0  0
 10 11  2  0  0  0
 10 41  1  0  0  0
 11 12  1  0  0  0
 12 13  2  0  0  0
 13 14  1  0  0  0
 14 15  1  0  0  0
 14 41  2  0  0  0
 15 16  1  0  0  0
 15 46  1  0  0  0
 16 17  2  0  0  0
 16 18  1  0  0  0
 18 19  1  0  0  0
 18 47  1  0  0  0
 19 20  2  0  0  0
 19 24  1  0  0  0
 20 21  1  0  0  0
 20 25  1  0  0  0
 21 22  2  0  0  0
 22 23  1  0  0  0
 23 24  2  0  0  0
 25 26  1  0  0  0
 25 37  1  0  0  0
 26 27  1  0  0  0
 27 28  1  0  0  0
 27 48  1  0  0  0
 28 29  2  0  0  0
 28 30  1  0  0  0
 30 31  1  0  0  0
 30 36  1  0  0  0
 31 32  1  0  0  0
 32 33  1  0  0  0
 33 34  1  0  0  0
 33 35  1  0  0  0
 34 49  1  0  0  0
 35 36  1  0  0  0
 37 38  1  0  0  0
 38 39  1  0  0  0
 38 40  1  0  0  0
 39 40  1  0  0  0
 42 43  2  0  0  0
M  END
>  <AUTHOR>
    GENERATED BY OPEN BABEL 2.3.2

>  <CHROM.1>
-46.40189624,-116.51881583,-171.74129859,48.84373179,-111.20366575,-43.50127858
-86.39170296,-73.73696270,114.35388870,-177.96254476,57.48821862,107.06239121
-68.71630064,155.04785562,172.56126983,140.68831504,-13.08251155,-25.99947653
-1.88917420,-1.60699298,-0.90948930,-2.95774815

>  <COMPND>
    UNNAMED

>  <MASTER>
        0    0    0    0    0    0    0    0   82    0   82    0

>  <Name>
ligands/mol6.pdb

>  <RI>
2.2834e+07

>  <Rbt.Current_Directory>
/home/rodrigo/Desktop/Rodrigo/Proyectos/test_OCONDOR/OCONDOR

>  <Rbt.Executable>
rbdock ($Id: //depot/dev/client3/rdock/2013.1/src/exe/rbdock.cxx#4 $)

>  <Rbt.Library>
libRbt.so (2013.1, Build901 2013/11/27)

>  <Rbt.Parameter_File>
dock.prm

>  <Rbt.Receptor>
rdock.prm

>  <SCORE>
-16.5913

>  <SCORE.INTER>
-8.99221

>  <SCORE.INTER.CONST>
1

>  <SCORE.INTER.POLAR>
0

>  <SCORE.INTER.REPUL>
0.00826688

>  <SCORE.INTER.ROT>
15

>  <SCORE.INTER.VDW>
-29.4335

>  <SCORE.INTER.norm>
-0.209121

>  <SCORE.INTRA>
-7.59905

>  <SCORE.INTRA.DIHEDRAL>
-1.65761

>  <SCORE.INTRA.DIHEDRAL.0>
15.1377

>  <SCORE.INTRA.POLAR>
-1

>  <SCORE.INTRA.POLAR.0>
0

>  <SCORE.INTRA.REPUL>
0

>  <SCORE.INTRA.REPUL.0>
0

>  <SCORE.INTRA.VDW>
-3.37024

>  <SCORE.INTRA.VDW.0>
-4.46419

>  <SCORE.INTRA.norm>
-0.176722

>  <SCORE.RESTR>
0

>  <SCORE.RESTR.CAVITY>
0

>  <SCORE.RESTR.norm>
0

>  <SCORE.SYSTEM>
0

>  <SCORE.SYSTEM.CONST>
0

>  <SCORE.SYSTEM.DIHEDRAL>
0

>  <SCORE.SYSTEM.norm>
0

>  <SCORE.heavy>
43

>  <SCORE.norm>
-0.385843

$$$$
ligands/mol6.pdb
  rDOCK(R)          3D
libRbt.so/2013.1/901 2013/11/27
 49 53  0  0  0  0  0  0  0  0999 V2000
  -11.0043  -32.8128    1.7896 N   0  0  0  0  0  0
  -11.3283  -33.1269    0.1694 S   0  0  0  0  0  0
  -10.1125  -32.7441   -0.5482 O   0  0  0  0  0  0
  -11.8599  -34.4491    0.1294 O   0  0  0  0  0  0
  -12.5909  -31.9527   -0.2205 C   0  0  0  0  0  0
  -13.5659  -32.2688   -1.1674 C   0  0  0  0  0  0
  -14.5194  -31.3093   -1.5193 C   0  0  0  0  0  0
  -14.5088  -30.0365   -0.9282 C   0  0  0  0  0  0
  -15.5383  -29.0048   -1.3305 C   0  0  0  0  0  0
  -15.4038  -27.6745   -0.6235 C   0  0  0  0  0  0
  -15.7912  -27.5558    0.7195 C   0  0  0  0  0  0
  -15.6799  -26.3383    1.3927 C   0  0  0  0  0  0
  -15.1290  -25.2349    0.7497 C   0  0  0  0  0  0
  -14.7050  -25.3479   -0.5717 C   0  0  0  0  0  0
  -14.1478  -24.2477   -1.2341 N   0  0  0  0  0  0
  -14.6774  -23.7122   -2.3907 C   0  0  0  0  0  0
  -15.4213  -22.7381   -2.4580 O   0  0  0  0  0  0
  -14.2470  -24.3276   -3.5485 N   0  0  0  0  0  0
  -12.9669  -24.1878   -4.1136 C   0  0  0  0  0  0
  -11.9899  -25.1910   -3.9925 C   0  0  0  0  0  0
  -10.7505  -24.9348   -4.6032 C   0  0  0  0  0  0
  -10.5211  -23.7350   -5.2536 C   0  0  0  0  0  0
  -11.4624  -22.7944   -5.4254 N   0  0  0  0  0  0
  -12.6604  -23.0396   -4.8562 C   0  0  0  0  0  0
  -12.1968  -26.5188   -3.2490 C   0  0  0  0  0  0
  -12.0893  -27.7794   -4.1620 C   0  0  0  0  0  0
  -12.7100  -28.9907   -3.6227 N   0  0  0  0  0  0
  -12.0219  -30.1813   -3.4338 C   0  0  0  0  0  0
  -11.4597  -30.4769   -2.3846 O   0  0  0  0  0  0
  -12.0885  -31.1276   -4.6496 C   0  0  0  0  0  0
  -11.0612  -30.7983   -5.7519 C   0  0  0  0  0  0
   -9.6953  -31.4829   -5.6238 C   0  0  0  0  0  0
   -9.8106  -32.9645   -5.2845 C   0  0  0  0  0  0
  -10.3967  -33.6312   -6.4023 O   0  0  0  0  0  0
  -10.6698  -33.1639   -4.0400 C   0  0  0  0  0  0
  -12.0790  -32.6125   -4.2517 C   0  0  0  0  0  0
  -11.2761  -26.6539   -1.9999 C   0  0  0  0  0  0
  -11.5872  -25.5900   -0.9735 C   0  0  0  0  0  0
  -11.4878  -25.8819    0.4981 C   0  0  0  0  0  0
  -10.4668  -24.9973   -0.1559 C   0  0  0  0  0  0
  -14.8759  -26.5472   -1.2729 C   0  0  0  0  0  0
  -13.5250  -29.7402    0.0309 C   0  0  0  0  0  0
  -12.5689  -30.6941    0.3853 C   0  0  0  0  0  0
  -11.8794  -32.7165    2.3011 H   0  0  0  0  0  0
  -10.4053  -31.9861    1.8509 H   0  0  0  0  0  0
  -13.6003  -23.6116   -0.6744 H   0  0  0  0  0  0
  -14.7372  -25.2034   -3.7206 H   0  0  0  0  0  0
  -13.5324  -28.8623   -3.0502 H   0  0  0  0  0  0
  -10.4157  -34.5841   -6.2087 H   0  0  0  0  0  0
  1  2  1  0  0  0
  1 44  1  0  0  0
  1 45  1  0  0  0
  2  3  2  0  0  0
  2  4  2  0  0  0
  2  5  1  0  0  0
  5  6  2  0  0  0
  5 43  1  0  0  0
  6  7  1  0  0  0
  7  8  2  0  0  0
  8  9  1  0  0  0
  8 42  1  0  0  0
  9 10  1  0  0  0
 10 11  2  0  0  0
 10 41  1  0  0  0
 11 12  1  0  0  0
 12 13  2  0  0  0
 13 14  1  0  0  0
 14 15  1  0  0  0
 14 41  2  0  0  0
 15 16  1  0  0  0
 15 46  1  0  0  0
 16 17  2  0  0  0
 16 18  1  0  0  0
 18 19  1  0  0  0
 18 47  1  0  0  0
 19 20  2  0  0  0
 19 24  1  0  0  0
 20 21  1  0  0  0
 20 25  1  0  0  0
 21 22  2  0  0  0
 22 23  1  0  0  0
 23 24  2  0  0  0
 25 26  1  0  0  0
 25 37  1  0  0  0
 26 27  1  0  0  0
 27 28  1  0  0  0
 27 48  1  0  0  0
 28 29  2  0  0  0
 28 30  1  0  0  0
 30 31  1  0  0  0
 30 36  1  0  0  0
 31 32  1  0  0  0
 32 33  1  0  0  0
 33 34  1  0  0  0
 33 35  1  0  0  0
 34 49  1  0  0  0
 35 36  1  0  0  0
 37 38  1  0  0  0
 38 39  1  0  0  0
 38 40  1  0  0  0
 39 40  1  0  0  0
 42 43  2  0  0  0
M  END
>  <AUTHOR>
    GENERATED BY OPEN BABEL 2.3.2

>  <CHROM.1>
158.87124372,-148.22436445,-179.53508521,-74.16033662,-120.78979876,97.35224832
-73.57681995,103.22190903,117.20811504,-160.18117492,62.98245042,-123.22476776
91.44790761,82.41818723,176.30082325,144.97171460,-12.53056690,-28.57452719
-2.17214337,1.10394718,-1.04322061,2.67929793

>  <COMPND>
    UNNAMED

>  <MASTER>
        0    0    0    0    0    0    0    0   82    0   82    0

>  <Name>
ligands/mol6.pdb

>  <RI>
2.2834e+07

>  <Rbt.Current_Directory>
/home/rodrigo/Desktop/Rodrigo/Proyectos/test_OCONDOR/OCONDOR

>  <Rbt.Executable>
rbdock ($Id: //depot/dev/client3/rdock/2013.1/src/exe/rbdock.cxx#4 $)

>  <Rbt.Library>
libRbt.so (2013.1, Build901 2013/11/27)

>  <Rbt.Parameter_File>
dock.prm

>  <Rbt.Receptor>
rdock.prm

>  <SCORE>
-16.3377

>  <SCORE.INTER>
-7.65366

>  <SCORE.INTER.CONST>
1

>  <SCORE.INTER.POLAR>
-0.817585

>  <SCORE.INTER.REPUL>
0.031394

>  <SCORE.INTER.ROT>
15

>  <SCORE.INTER.VDW>
-25.4308

>  <SCORE.INTER.norm>
-0.177992

>  <SCORE.INTRA>
-8.68402

>  <SCORE.INTRA.DIHEDRAL>
-0.520294

>  <SCORE.INTRA.DIHEDRAL.0>
15.1377

>  <SCORE.INTRA.POLAR>
0

>  <SCORE.INTRA.POLAR.0>
0

>  <SCORE.INTRA.REPUL>
0

>  <SCORE.INTRA.REPUL.0>
0

>  <SCORE.INTRA.VDW>
-8.42387

>  <SCORE.INTRA.VDW.0>
-4.46419

>  <SCORE.INTRA.norm>
-0.201954

>  <SCORE.RESTR>
0

>  <SCORE.RESTR.CAVITY>
0

>  <SCORE.RESTR.norm>
0

>  <SCORE.SYSTEM>
0

>  <SCORE.SYSTEM.CONST>
0

>  <SCORE.SYSTEM.DIHEDRAL>
0

>  <SCORE.SYSTEM.norm>
0

>  <SCORE.heavy>
43

>  <SCORE.norm>
-0.379946

$$$$
ligands/mol6.pdb
  rDOCK(R)          3D
libRbt.so/2013.1/901 2013/11/27
 49 53  0  0  0  0  0  0  0  0999 V2000
  -14.7803  -20.5115   -3.5982 N   0  0  0  0  0  0
  -15.5688  -20.2778   -2.1311 S   0  0  0  0  0  0
  -14.7510  -19.3070   -1.4041 O   0  0  0  0  0  0
  -16.9353  -20.0385   -2.4591 O   0  0  0  0  0  0
  -15.4013  -21.8463   -1.3332 C   0  0  0  0  0  0
  -16.4622  -22.7526   -1.3518 C   0  0  0  0  0  0
  -16.3459  -23.9618   -0.6606 C   0  0  0  0  0  0
  -15.1744  -24.2746    0.0462 C   0  0  0  0  0  0
  -15.0700  -25.5805    0.8010 C   0  0  0  0  0  0
  -15.2277  -26.8161   -0.0571 C   0  0  0  0  0  0
  -16.0237  -27.8804    0.3918 C   0  0  0  0  0  0
  -16.1820  -29.0323   -0.3802 C   0  0  0  0  0  0
  -15.5910  -29.1153   -1.6364 C   0  0  0  0  0  0
  -14.8291  -28.0511   -2.1113 C   0  0  0  0  0  0
  -14.2275  -28.1175   -3.3736 N   0  0  0  0  0  0
  -13.5820  -29.2421   -3.8467 C   0  0  0  0  0  0
  -14.1045  -30.1665   -4.4624 O   0  0  0  0  0  0
  -12.2180  -29.2429   -3.6359 N   0  0  0  0  0  0
  -11.5534  -29.9657   -2.6292 C   0  0  0  0  0  0
  -10.3408  -30.6329   -2.8738 C   0  0  0  0  0  0
   -9.7729  -31.3181   -1.7863 C   0  0  0  0  0  0
  -10.4133  -31.3457   -0.5599 C   0  0  0  0  0  0
  -11.5405  -30.6666   -0.2980 N   0  0  0  0  0  0
  -12.0837  -29.9925   -1.3323 C   0  0  0  0  0  0
   -9.6196  -30.6535   -4.2296 C   0  0  0  0  0  0
   -8.0642  -30.5988   -4.1204 C   0  0  0  0  0  0
   -7.4396  -31.7953   -3.5532 N   0  0  0  0  0  0
   -6.5136  -31.7557   -2.5200 C   0  0  0  0  0  0
   -6.0005  -30.7188   -2.1126 O   0  0  0  0  0  0
   -6.2409  -33.1356   -1.8877 C   0  0  0  0  0  0
   -7.4660  -33.7487   -1.1789 C   0  0  0  0  0  0
   -8.3802  -34.6188   -2.0493 C   0  0  0  0  0  0
   -7.6022  -35.5909   -2.9289 C   0  0  0  0  0  0
   -6.9676  -36.5469   -2.0799 O   0  0  0  0  0  0
   -6.5607  -34.8468   -3.7585 C   0  0  0  0  0  0
   -5.5644  -34.1149   -2.8605 C   0  0  0  0  0  0
  -10.0747  -31.8399   -5.1305 C   0  0  0  0  0  0
  -11.4842  -31.6349   -5.6339 C   0  0  0  0  0  0
  -11.8880  -32.0876   -7.0096 C   0  0  0  0  0  0
  -12.3920  -32.8272   -5.8048 C   0  0  0  0  0  0
  -14.6112  -26.9214   -1.3141 C   0  0  0  0  0  0
  -14.1129  -23.3535    0.0449 C   0  0  0  0  0  0
  -14.2239  -22.1432   -0.6426 C   0  0  0  0  0  0
  -14.8831  -19.6810   -4.1781 H   0  0  0  0  0  0
  -15.1458  -21.3602   -4.0364 H   0  0  0  0  0  0
  -14.5904  -27.4975   -4.0816 H   0  0  0  0  0  0
  -11.6992  -29.0544   -4.4915 H   0  0  0  0  0  0
   -7.9456  -32.6635   -3.6575 H   0  0  0  0  0  0
   -6.5063  -37.1911   -2.6437 H   0  0  0  0  0  0
  1  2  1  0  0  0
  1 44  1  0  0  0
  1 45  1  0  0  0
  2  3  2  0  0  0
  2  4  2  0  0  0
  2  5  1  0  0  0
  5  6  2  0  0  0
  5 43  1  0  0  0
  6  7  1  0  0  0
  7  8  2  0  0  0
  8  9  1  0  0  0
  8 42  1  0  0  0
  9 10  1  0  0  0
 10 11  2  0  0  0
 10 41  1  0  0  0
 11 12  1  0  0  0
 12 13  2  0  0  0
 13 14  1  0  0  0
 14 15  1  0  0  0
 14 41  2  0  0  0
 15 16  1  0  0  0
 15 46  1  0  0  0
 16 17  2  0  0  0
 16 18  1  0  0  0
 18 19  1  0  0  0
 18 47  1  0  0  0
 19 20  2  0  0  0
 19 24  1  0  0  0
 20 21  1  0  0  0
 20 25  1  0  0  0
 21 22  2  0  0  0
 22 23  1  0  0  0
 23 24  2  0  0  0
 25 26  1  0  0  0
 25 37  1  0  0  0
 26 27  1  0  0  0
 27 28  1  0  0  0
 27 48  1  0  0  0
 28 29  2  0  0  0
 28 30  1  0  0  0
 30 31  1  0  0  0
 30 36  1  0  0  0
 31 32  1  0  0  0
 32 33  1  0  0  0
 33 34  1  0  0  0
 33 35  1  0  0  0
 34 49  1  0  0  0
 35 36  1  0  0  0
 37 38  1  0  0  0
 38 39  1  0  0  0
 38 40  1  0  0  0
 39 40  1  0  0  0
 42 43  2  0  0  0
M  END
>  <AUTHOR>
    GENERATED BY OPEN BABEL 2.3.2

>  <CHROM.1>
-71.35581822,-99.67728771,59.54675677,-136.16775414,-42.93285063,88.59055169
102.22958080,138.80028457,142.96877283,68.55400793,70.69335477,-129.88833093
-10.23830742,-64.63334278,177.36628347,144.50158279,-11.99965218,-28.56075517
-2.35430086,-2.16604695,0.06765286,-2.95634905

>  <COMPND>
    UNNAMED

>  <MASTER>
        0    0    0    0    0    0    0    0   82    0   82    0

>  <Name>
ligands/mol6.pdb

>  <RI>
2.2834e+07

>  <Rbt.Current_Directory>
/home/rodrigo/Desktop/Rodrigo/Proyectos/test_OCONDOR/OCONDOR

>  <Rbt.Executable>
rbdock ($Id: //depot/dev/client3/rdock/2013.1/src/exe/rbdock.cxx#4 $)

>  <Rbt.Library>
libRbt.so (2013.1, Build901 2013/11/27)

>  <Rbt.Parameter_File>
dock.prm

>  <Rbt.Receptor>
rdock.prm

>  <SCORE>
-11.6934

>  <SCORE.INTER>
-7.3485

>  <SCORE.INTER.CONST>
1

>  <SCORE.INTER.POLAR>
0

>  <SCORE.INTER.REPUL>
0

>  <SCORE.INTER.ROT>
15

>  <SCORE.INTER.VDW>
-27.7485

>  <SCORE.INTER.norm>
-0.170895

>  <SCORE.INTRA>
-4.34487

>  <SCORE.INTRA.DIHEDRAL>
-2.50808

>  <SCORE.INTRA.DIHEDRAL.0>
15.1377

>  <SCORE.INTRA.POLAR>
0

>  <SCORE.INTRA.POLAR.0>
0

>  <SCORE.INTRA.REPUL>
0

>  <SCORE.INTRA.REPUL.0>
0

>  <SCORE.INTRA.VDW>
-3.09083

>  <SCORE.INTRA.VDW.0>
-4.46419

>  <SCORE.INTRA.norm>
-0.101044

>  <SCORE.RESTR>
0

>  <SCORE.RESTR.CAVITY>
0

>  <SCORE.RESTR.norm>
0

>  <SCORE.SYSTEM>
0

>  <SCORE.SYSTEM.CONST>
0

>  <SCORE.SYSTEM.DIHEDRAL>
0

>  <SCORE.SYSTEM.norm>
0

>  <SCORE.heavy>
43

>  <SCORE.norm>
-0.271939

$$$$
ligands/mol6.pdb
  rDOCK(R)          3D
libRbt.so/2013.1/901 2013/11/27
 49 53  0  0  0  0  0  0  0  0999 V2000
   -4.0574  -32.9840   -1.6328 N   0  0  0  0  0  0
   -4.9849  -31.9628   -0.6707 S   0  0  0  0  0  0
   -6.0367  -32.8110   -0.1104 O   0  0  0  0  0  0
   -4.0577  -31.2495    0.1439 O   0  0  0  0  0  0
   -5.7261  -30.8705   -1.8464 C   0  0  0  0  0  0
   -6.9525  -31.2002   -2.4248 C   0  0  0  0  0  0
   -7.4980  -30.3648   -3.4036 C   0  0  0  0  0  0
   -6.8287  -29.1987   -3.8061 C   0  0  0  0  0  0
   -7.4251  -28.3132   -4.8767 C   0  0  0  0  0  0
   -8.5521  -27.4240   -4.4003 C   0  0  0  0  0  0
   -8.4249  -26.0297   -4.4864 C   0  0  0  0  0  0
   -9.4493  -25.1881   -4.0502 C   0  0  0  0  0  0
  -10.6382  -25.7285   -3.5719 C   0  0  0  0  0  0
  -10.7936  -27.1111   -3.5160 C   0  0  0  0  0  0
  -11.9837  -27.6720   -3.0377 N   0  0  0  0  0  0
  -12.0237  -28.6334   -2.0481 C   0  0  0  0  0  0
  -11.6295  -29.7911   -2.1529 O   0  0  0  0  0  0
  -12.4999  -28.1782   -0.8354 N   0  0  0  0  0  0
  -13.8508  -28.1738   -0.4446 C   0  0  0  0  0  0
  -14.3895  -27.1458    0.3483 C   0  0  0  0  0  0
  -15.7532  -27.2527    0.6701 C   0  0  0  0  0  0
  -16.4937  -28.3411    0.2437 C   0  0  0  0  0  0
  -16.0066  -29.2986   -0.5603 N   0  0  0  0  0  0
  -14.7022  -29.1949   -0.8876 C   0  0  0  0  0  0
  -13.5905  -25.9419    0.8688 C   0  0  0  0  0  0
  -14.2951  -24.5684    0.6423 C   0  0  0  0  0  0
  -14.7462  -24.3211   -0.7284 N   0  0  0  0  0  0
  -15.7752  -23.4457   -1.0467 C   0  0  0  0  0  0
  -16.9209  -23.8102   -1.2896 O   0  0  0  0  0  0
  -15.3549  -21.9626   -1.0008 C   0  0  0  0  0  0
  -14.1994  -21.6130   -1.9608 C   0  0  0  0  0  0
  -14.6072  -21.1831   -3.3748 C   0  0  0  0  0  0
  -15.7588  -20.1843   -3.3758 C   0  0  0  0  0  0
  -15.2904  -18.9668   -2.7962 O   0  0  0  0  0  0
  -16.9407  -20.7285   -2.5797 C   0  0  0  0  0  0
  -16.5467  -21.0000   -1.1286 C   0  0  0  0  0  0
  -13.1583  -26.1093    2.3558 C   0  0  0  0  0  0
  -12.1709  -27.2416    2.5143 C   0  0  0  0  0  0
  -10.6906  -26.9796    2.5393 C   0  0  0  0  0  0
  -11.3976  -27.3772    3.8021 C   0  0  0  0  0  0
   -9.7448  -27.9598   -3.8886 C   0  0  0  0  0  0
   -5.5995  -28.8782   -3.2048 C   0  0  0  0  0  0
   -5.0488  -29.7097   -2.2275 C   0  0  0  0  0  0
   -4.6675  -33.5419   -2.2271 H   0  0  0  0  0  0
   -3.4540  -33.5468   -1.0286 H   0  0  0  0  0  0
  -12.8177  -27.1124   -3.1307 H   0  0  0  0  0  0
  -11.8034  -28.2585   -0.0970 H   0  0  0  0  0  0
  -14.0786  -24.5017   -1.4648 H   0  0  0  0  0  0
  -16.0080  -18.3126   -2.8487 H   0  0  0  0  0  0
  1  2  1  0  0  0
  1 44  1  0  0  0
  1 45  1  0  0  0
  2  3  2  0  0  0
  2  4  2  0  0  0
  2  5  1  0  0  0
  5  6  2  0  0  0
  5 43  1  0  0  0
  6  7  1  0  0  0
  7  8  2  0  0  0
  8  9  1  0  0  0
  8 42  1  0  0  0
  9 10  1  0  0  0
 10 11  2  0  0  0
 10 41  1  0  0  0
 11 12  1  0  0  0
 12 13  2  0  0  0
 13 14  1  0  0  0
 14 15  1  0  0  0
 14 41  2  0  0  0
 15 16  1  0  0  0
 15 46  1  0  0  0
 16 17  2  0  0  0
 16 18  1  0  0  0
 18 19  1  0  0  0
 18 47  1  0  0  0
 19 20  2  0  0  0
 19 24  1  0  0  0
 20 21  1  0  0  0
 20 25  1  0  0  0
 21 22  2  0  0  0
 22 23  1  0  0  0
 23 24  2  0  0  0
 25 26  1  0  0  0
 25 37  1  0  0  0
 26 27  1  0  0  0
 27 28  1  0  0  0
 27 48  1  0  0  0
 28 29  2  0  0  0
 28 30  1  0  0  0
 30 31  1  0  0  0
 30 36  1  0  0  0
 31 32  1  0  0  0
 32 33  1  0  0  0
 33 34  1  0  0  0
 33 35  1  0  0  0
 34 49  1  0  0  0
 35 36  1  0  0  0
 37 38  1  0  0  0
 38 39  1  0  0  0
 38 40  1  0  0  0
 39 40  1  0  0  0
 42 43  2  0  0  0
M  END
>  <AUTHOR>
    GENERATED BY OPEN BABEL 2.3.2

>  <CHROM.1>
47.51432476,89.42477079,77.86511707,119.05784931,-128.19311575,-68.70101487
89.10120997,-144.49319768,132.12085744,-51.33742458,65.95190083,155.84439845
-99.93702153,59.17391180,176.45135204,96.02837585,-11.26235509,-27.02447282
-1.41948113,-0.49189168,0.52253608,-0.70372021

>  <COMPND>
    UNNAMED

>  <MASTER>
        0    0    0    0    0    0    0    0   82    0   82    0

>  <Name>
ligands/mol6.pdb

>  <RI>
2.2834e+07

>  <Rbt.Current_Directory>
/home/rodrigo/Desktop/Rodrigo/Proyectos/test_OCONDOR/OCONDOR

>  <Rbt.Executable>
rbdock ($Id: //depot/dev/client3/rdock/2013.1/src/exe/rbdock.cxx#4 $)

>  <Rbt.Library>
libRbt.so (2013.1, Build901 2013/11/27)

>  <Rbt.Parameter_File>
dock.prm

>  <Rbt.Receptor>
rdock.prm

>  <SCORE>
-10.7436

>  <SCORE.INTER>
-6.72165

>  <SCORE.INTER.CONST>
1

>  <SCORE.INTER.POLAR>
0

>  <SCORE.INTER.REPUL>
0

>  <SCORE.INTER.ROT>
15

>  <SCORE.INTER.VDW>
-27.1216

>  <SCORE.INTER.norm>
-0.156317

>  <SCORE.INTRA>
-4.022

>  <SCORE.INTRA.DIHEDRAL>
-4.3345

>  <SCORE.INTRA.DIHEDRAL.0>
15.1377

>  <SCORE.INTRA.POLAR>
0

>  <SCORE.INTRA.POLAR.0>
0

>  <SCORE.INTRA.REPUL>
0.00452873

>  <SCORE.INTRA.REPUL.0>
0

>  <SCORE.INTRA.VDW>
-1.87739

>  <SCORE.INTRA.VDW.0>
-4.46419

>  <SCORE.INTRA.norm>
-0.0935348

>  <SCORE.RESTR>
0

>  <SCORE.RESTR.CAVITY>
0

>  <SCORE.RESTR.norm>
0

>  <SCORE.SYSTEM>
0

>  <SCORE.SYSTEM.CONST>
0

>  <SCORE.SYSTEM.DIHEDRAL>
0

>  <SCORE.SYSTEM.norm>
0

>  <SCORE.heavy>
43

>  <SCORE.norm>
-0.249852

$$$$
ligands/mol6.pdb
  rDOCK(R)          3D
libRbt.so/2013.1/901 2013/11/27
 49 53  0  0  0  0  0  0  0  0999 V2000
  -10.8476  -21.3006   -0.0251 N   0  0  0  0  0  0
  -12.4774  -21.2405   -0.4361 S   0  0  0  0  0  0
  -13.0700  -20.2650    0.4787 O   0  0  0  0  0  0
  -12.5146  -21.0864   -1.8528 O   0  0  0  0  0  0
  -13.0628  -22.8460    0.0159 C   0  0  0  0  0  0
  -14.4219  -23.1451   -0.0878 C   0  0  0  0  0  0
  -14.8856  -24.3937    0.3361 C   0  0  0  0  0  0
  -13.9999  -25.3483    0.8593 C   0  0  0  0  0  0
  -14.5195  -26.6889    1.3271 C   0  0  0  0  0  0
  -14.8361  -27.6629    0.2140 C   0  0  0  0  0  0
  -15.9320  -28.5298    0.3362 C   0  0  0  0  0  0
  -16.2425  -29.4397   -0.6757 C   0  0  0  0  0  0
  -15.4946  -29.4591   -1.8481 C   0  0  0  0  0  0
  -14.4269  -28.5783   -1.9993 C   0  0  0  0  0  0
  -13.6639  -28.5839   -3.1729 N   0  0  0  0  0  0
  -12.2890  -28.7057   -3.1817 C   0  0  0  0  0  0
  -11.4865  -27.8261   -2.8835 O   0  0  0  0  0  0
  -11.8345  -29.9693   -3.5002 N   0  0  0  0  0  0
  -11.3481  -30.3628   -4.7597 C   0  0  0  0  0  0
  -10.1660  -29.8261   -5.2981 C   0  0  0  0  0  0
   -9.7823  -30.3014   -6.5636 C   0  0  0  0  0  0
  -10.5647  -31.2239   -7.2357 C   0  0  0  0  0  0
  -11.6634  -31.7860   -6.7092 N   0  0  0  0  0  0
  -12.0298  -31.3474   -5.4875 C   0  0  0  0  0  0
   -9.2917  -28.7757   -4.5973 C   0  0  0  0  0  0
   -7.9448  -29.3384   -4.0464 C   0  0  0  0  0  0
   -8.0785  -30.3900   -3.0366 N   0  0  0  0  0  0
   -7.0983  -31.3419   -2.7918 C   0  0  0  0  0  0
   -5.9537  -31.2590   -3.2246 O   0  0  0  0  0  0
   -7.5687  -32.4825   -1.8667 C   0  0  0  0  0  0
   -8.6257  -33.4065   -2.5055 C   0  0  0  0  0  0
   -8.0833  -34.6119   -3.2823 C   0  0  0  0  0  0
   -6.9710  -35.3393   -2.5357 C   0  0  0  0  0  0
   -7.5375  -35.9403   -1.3715 O   0  0  0  0  0  0
   -5.8640  -34.3662   -2.1429 C   0  0  0  0  0  0
   -6.4017  -33.2599   -1.2365 C   0  0  0  0  0  0
   -9.0510  -27.5142   -5.4786 C   0  0  0  0  0  0
  -10.3496  -26.8067   -5.7872 C   0  0  0  0  0  0
  -10.6039  -25.4079   -5.2983 C   0  0  0  0  0  0
  -10.3535  -25.6523   -6.7578 C   0  0  0  0  0  0
  -14.0692  -27.7103   -0.9611 C   0  0  0  0  0  0
  -12.6331  -25.0324    0.9465 C   0  0  0  0  0  0
  -12.1642  -23.7862    0.5260 C   0  0  0  0  0  0
  -10.3418  -21.8570   -0.7116 H   0  0  0  0  0  0
  -10.7622  -21.6579    0.9294 H   0  0  0  0  0  0
  -14.1300  -28.8860   -4.0149 H   0  0  0  0  0  0
  -11.4667  -30.4592   -2.6868 H   0  0  0  0  0  0
   -8.7145  -30.2072   -2.2733 H   0  0  0  0  0  0
   -8.0142  -35.2509   -0.8783 H   0  0  0  0  0  0
  1  2  1  0  0  0
  1 44  1  0  0  0
  1 45  1  0  0  0
  2  3  2  0  0  0
  2  4  2  0  0  0
  2  5  1  0  0  0
  5  6  2  0  0  0
  5 43  1  0  0  0
  6  7  1  0  0  0
  7  8  2  0  0  0
  8  9  1  0  0  0
  8 42  1  0  0  0
  9 10  1  0  0  0
 10 11  2  0  0  0
 10 41  1  0  0  0
 11 12  1  0  0  0
 12 13  2  0  0  0
 13 14  1  0  0  0
 14 15  1  0  0  0
 14 41  2  0  0  0
 15 16  1  0  0  0
 15 46  1  0  0  0
 16 17  2  0  0  0
 16 18  1  0  0  0
 18 19  1  0  0  0
 18 47  1  0  0  0
 19 20  2  0  0  0
 19 24  1  0  0  0
 20 21  1  0  0  0
 20 25  1  0  0  0
 21 22  2  0  0  0
 22 23  1  0  0  0
 23 24  2  0  0  0
 25 26  1  0  0  0
 25 37  1  0  0  0
 26 27  1  0  0  0
 27 28  1  0  0  0
 27 48  1  0  0  0
 28 29  2  0  0  0
 28 30  1  0  0  0
 30 31  1  0  0  0
 30 36  1  0  0  0
 31 32  1  0  0  0
 32 33  1  0  0  0
 33 34  1  0  0  0
 33 35  1  0  0  0
 34 49  1  0  0  0
 35 36  1  0  0  0
 37 38  1  0  0  0
 38 39  1  0  0  0
 38 40  1  0  0  0
 39 40  1  0  0  0
 42 43  2  0  0  0
M  END
>  <AUTHOR>
    GENERATED BY OPEN BABEL 2.3.2

>  <CHROM.1>
-171.60496236,175.21031691,77.03026055,-143.80895816,-126.69776772,-75.29065297
100.69916803,65.46880605,107.26466080,-61.07183540,62.22493032,155.08557748
12.94101398,68.57486960,-53.00486984,116.53592655,-11.13234867,-28.19691530
-2.43339832,-2.20595553,-0.70045222,3.01463794

>  <COMPND>
    UNNAMED

>  <MASTER>
        0    0    0    0    0    0    0    0   82    0   82    0

>  <Name>
ligands/mol6.pdb

>  <RI>
2.2834e+07

>  <Rbt.Current_Directory>
/home/rodrigo/Desktop/Rodrigo/Proyectos/test_OCONDOR/OCONDOR

>  <Rbt.Executable>
rbdock ($Id: //depot/dev/client3/rdock/2013.1/src/exe/rbdock.cxx#4 $)

>  <Rbt.Library>
libRbt.so (2013.1, Build901 2013/11/27)

>  <Rbt.Parameter_File>
dock.prm

>  <Rbt.Receptor>
rdock.prm

>  <SCORE>
-8.4174

>  <SCORE.INTER>
-4.94283

>  <SCORE.INTER.CONST>
1

>  <SCORE.INTER.POLAR>
-0.936412

>  <SCORE.INTER.REPUL>
0

>  <SCORE.INTER.ROT>
15

>  <SCORE.INTER.VDW>
-22.159

>  <SCORE.INTER.norm>
-0.114949

>  <SCORE.INTRA>
-3.47457

>  <SCORE.INTRA.DIHEDRAL>
-4.42451

>  <SCORE.INTRA.DIHEDRAL.0>
15.1377

>  <SCORE.INTRA.POLAR>
0

>  <SCORE.INTRA.POLAR.0>
0

>  <SCORE.INTRA.REPUL>
0

>  <SCORE.INTRA.REPUL.0>
0

>  <SCORE.INTRA.VDW>
-1.26231

>  <SCORE.INTRA.VDW.0>
-4.46419

>  <SCORE.INTRA.norm>
-0.0808039

>  <SCORE.RESTR>
0

>  <SCORE.RESTR.CAVITY>
0

>  <SCORE.RESTR.norm>
0

>  <SCORE.SYSTEM>
0

>  <SCORE.SYSTEM.CONST>
0

>  <SCORE.SYSTEM.DIHEDRAL>
0

>  <SCORE.SYSTEM.norm>
0

>  <SCORE.heavy>
43

>  <SCORE.norm>
-0.195753

$$$$
ligands/mol6.pdb
  rDOCK(R)          3D
libRbt.so/2013.1/901 2013/11/27
 49 53  0  0  0  0  0  0  0  0999 V2000
  -12.2783  -19.9555   -3.0401 N   0  0  0  0  0  0
  -12.5924  -21.4569   -3.7300 S   0  0  0  0  0  0
  -13.4424  -21.1790   -4.8876 O   0  0  0  0  0  0
  -11.3272  -22.1039   -3.8435 O   0  0  0  0  0  0
  -13.5784  -22.2618   -2.5033 C   0  0  0  0  0  0
  -13.1052  -22.3749   -1.1954 C   0  0  0  0  0  0
  -13.8607  -23.0725   -0.2487 C   0  0  0  0  0  0
  -15.0889  -23.6547   -0.5982 C   0  0  0  0  0  0
  -15.8871  -24.4186    0.4339 C   0  0  0  0  0  0
  -15.4541  -25.8551    0.6255 C   0  0  0  0  0  0
  -16.2642  -26.8973    0.1510 C   0  0  0  0  0  0
  -15.8881  -28.2309    0.3186 C   0  0  0  0  0  0
  -14.6705  -28.5412    0.9148 C   0  0  0  0  0  0
  -13.8383  -27.5160    1.3568 C   0  0  0  0  0  0
  -12.6092  -27.8103    1.9587 N   0  0  0  0  0  0
  -11.4148  -27.8377    1.2675 C   0  0  0  0  0  0
  -10.3285  -27.4549    1.6920 O   0  0  0  0  0  0
  -11.4972  -28.4160    0.0171 N   0  0  0  0  0  0
  -12.0570  -27.8096   -1.1216 C   0  0  0  0  0  0
  -12.4800  -28.5633   -2.2300 C   0  0  0  0  0  0
  -13.0255  -27.8423   -3.3058 C   0  0  0  0  0  0
  -13.0985  -26.4611   -3.2624 C   0  0  0  0  0  0
  -12.7516  -25.7349   -2.1888 N   0  0  0  0  0  0
  -12.2421  -26.4208   -1.1451 C   0  0  0  0  0  0
  -12.3821  -30.0928   -2.3280 C   0  0  0  0  0  0
  -10.9402  -30.6184   -2.6090 C   0  0  0  0  0  0
  -10.8609  -32.0197   -3.0257 N   0  0  0  0  0  0
  -11.2231  -32.4611   -4.2909 C   0  0  0  0  0  0
  -12.0426  -31.8845   -4.9982 O   0  0  0  0  0  0
  -10.4457  -33.7114   -4.7499 C   0  0  0  0  0  0
  -10.9048  -34.2635   -6.1150 C   0  0  0  0  0  0
  -10.1929  -33.6899   -7.3458 C   0  0  0  0  0  0
   -8.6809  -33.6131   -7.1669 C   0  0  0  0  0  0
   -8.1741  -34.9458   -7.0990 O   0  0  0  0  0  0
   -8.3301  -32.8486   -5.8945 C   0  0  0  0  0  0
   -8.9214  -33.5322   -4.6626 C   0  0  0  0  0  0
  -13.0083  -30.8118   -1.0963 C   0  0  0  0  0  0
  -14.4585  -31.1558   -1.3428 C   0  0  0  0  0  0
  -15.1445  -30.7490   -2.6173 C   0  0  0  0  0  0
  -14.8093  -32.1927   -2.3805 C   0  0  0  0  0  0
  -14.2403  -26.1794    1.2524 C   0  0  0  0  0  0
  -15.5536  -23.5214   -1.9180 C   0  0  0  0  0  0
  -14.8026  -22.8270   -2.8685 C   0  0  0  0  0  0
  -11.8305  -19.3507   -3.7259 H   0  0  0  0  0  0
  -11.7202  -20.0927   -2.1942 H   0  0  0  0  0  0
  -12.5325  -27.6236    2.9470 H   0  0  0  0  0  0
  -10.7587  -29.0999   -0.1369 H   0  0  0  0  0  0
  -10.2059  -32.6047   -2.5264 H   0  0  0  0  0  0
   -8.2887  -35.3566   -7.9730 H   0  0  0  0  0  0
  1  2  1  0  0  0
  1 44  1  0  0  0
  1 45  1  0  0  0
  2  3  2  0  0  0
  2  4  2  0  0  0
  2  5  1  0  0  0
  5  6  2  0  0  0
  5 43  1  0  0  0
  6  7  1  0  0  0
  7  8  2  0  0  0
  8  9  1  0  0  0
  8 42  1  0  0  0
  9 10  1  0  0  0
 10 11  2  0  0  0
 10 41  1  0  0  0
 11 12  1  0  0  0
 12 13  2  0  0  0
 13 14  1  0  0  0
 14 15  1  0  0  0
 14 41  2  0  0  0
 15 16  1  0  0  0
 15 46  1  0  0  0
 16 17  2  0  0  0
 16 18  1  0  0  0
 18 19  1  0  0  0
 18 47  1  0  0  0
 19 20  2  0  0  0
 19 24  1  0  0  0
 20 21  1  0  0  0
 20 25  1  0  0  0
 21 22  2  0  0  0
 22 23  1  0  0  0
 23 24  2  0  0  0
 25 26  1  0  0  0
 25 37  1  0  0  0
 26 27  1  0  0  0
 27 28  1  0  0  0
 27 48  1  0  0  0
 28 29  2  0  0  0
 28 30  1  0  0  0
 30 31  1  0  0  0
 30 36  1  0  0  0
 31 32  1  0  0  0
 32 33  1  0  0  0
 33 34  1  0  0  0
 33 35  1  0  0  0
 34 49  1  0  0  0
 35 36  1  0  0  0
 37 38  1  0  0  0
 38 39  1  0  0  0
 38 40  1  0  0  0
 39 40  1  0  0  0
 42 43  2  0  0  0
M  END
>  <AUTHOR>
    GENERATED BY OPEN BABEL 2.3.2

>  <CHROM.1>
-58.18716502,-54.70527592,-82.96957387,-107.91858105,95.23177152,142.66314478
75.68884009,-160.19298221,-75.81062273,-165.88699117,92.47455369,74.46075030
-26.42952539,176.24721328,67.91073223,-2.99253956,-12.56904092,-27.80943157
-2.34495678,-2.19331184,-1.03000320,2.91390172

>  <COMPND>
    UNNAMED

>  <MASTER>
        0    0    0    0    0    0    0    0   82    0   82    0

>  <Name>
ligands/mol6.pdb

>  <RI>
2.2834e+07

>  <Rbt.Current_Directory>
/home/rodrigo/Desktop/Rodrigo/Proyectos/test_OCONDOR/OCONDOR

>  <Rbt.Executable>
rbdock ($Id: //depot/dev/client3/rdock/2013.1/src/exe/rbdock.cxx#4 $)

>  <Rbt.Library>
libRbt.so (2013.1, Build901 2013/11/27)

>  <Rbt.Parameter_File>
dock.prm

>  <Rbt.Receptor>
rdock.prm

>  <SCORE>
-8.82583

>  <SCORE.INTER>
-3.96305

>  <SCORE.INTER.CONST>
1

>  <SCORE.INTER.POLAR>
-0.133435

>  <SCORE.INTER.REPUL>
0

>  <SCORE.INTER.ROT>
15

>  <SCORE.INTER.VDW>
-23.9094

>  <SCORE.INTER.norm>
-0.0921639

>  <SCORE.INTRA>
-4.86278

>  <SCORE.INTRA.DIHEDRAL>
-0.363275

>  <SCORE.INTRA.DIHEDRAL.0>
15.1377

>  <SCORE.INTRA.POLAR>
0

>  <SCORE.INTRA.POLAR.0>
0

>  <SCORE.INTRA.REPUL>
0

>  <SCORE.INTRA.REPUL.0>
0

>  <SCORE.INTRA.VDW>
-4.68114

>  <SCORE.INTRA.VDW.0>
-4.46419

>  <SCORE.INTRA.norm>
-0.113088

>  <SCORE.RESTR>
0

>  <SCORE.RESTR.CAVITY>
0

>  <SCORE.RESTR.norm>
0

>  <SCORE.SYSTEM>
0

>  <SCORE.SYSTEM.CONST>
0

>  <SCORE.SYSTEM.DIHEDRAL>
0

>  <SCORE.SYSTEM.norm>
0

>  <SCORE.heavy>
43

>  <SCORE.norm>
-0.205252

$$$$
ligands/mol6.pdb
  rDOCK(R)          3D
libRbt.so/2013.1/901 2013/11/27
 49 53  0  0  0  0  0  0  0  0999 V2000
   -5.5675  -35.2823   -2.6737 N   0  0  0  0  0  0
   -7.1140  -35.5129   -3.2935 S   0  0  0  0  0  0
   -7.1003  -34.8769   -4.6107 O   0  0  0  0  0  0
   -7.4021  -36.8972   -3.1117 O   0  0  0  0  0  0
   -8.1239  -34.5363   -2.2207 C   0  0  0  0  0  0
   -7.5486  -33.8771   -1.1336 C   0  0  0  0  0  0
   -8.3649  -33.1633   -0.2517 C   0  0  0  0  0  0
   -9.7527  -33.0994   -0.4506 C   0  0  0  0  0  0
  -10.6236  -32.3352    0.5208 C   0  0  0  0  0  0
  -11.5994  -31.3792   -0.1286 C   0  0  0  0  0  0
  -12.9366  -31.3528    0.2942 C   0  0  0  0  0  0
  -13.8567  -30.4821   -0.2917 C   0  0  0  0  0  0
  -13.4415  -29.5867   -1.2716 C   0  0  0  0  0  0
  -12.1087  -29.5753   -1.6747 C   0  0  0  0  0  0
  -11.6735  -28.6804   -2.6593 N   0  0  0  0  0  0
  -12.4990  -28.1793   -3.6455 C   0  0  0  0  0  0
  -12.8801  -28.7859   -4.6422 O   0  0  0  0  0  0
  -12.9571  -26.8999   -3.4044 N   0  0  0  0  0  0
  -14.0740  -26.5738   -2.6146 C   0  0  0  0  0  0
  -13.9497  -26.2536   -1.2517 C   0  0  0  0  0  0
  -15.1389  -25.9427   -0.5706 C   0  0  0  0  0  0
  -16.3575  -25.9906   -1.2246 C   0  0  0  0  0  0
  -16.4839  -26.2386   -2.5371 N   0  0  0  0  0  0
  -15.3452  -26.5220   -3.2022 C   0  0  0  0  0  0
  -12.6194  -26.2247   -0.4848 C   0  0  0  0  0  0
  -12.1658  -24.7944   -0.0571 C   0  0  0  0  0  0
  -11.8886  -23.8752   -1.1624 N   0  0  0  0  0  0
  -10.8954  -24.0951   -2.1068 C   0  0  0  0  0  0
  -11.0211  -24.8673   -3.0514 O   0  0  0  0  0  0
   -9.6412  -23.2239   -1.8919 C   0  0  0  0  0  0
   -8.4845  -23.5485   -2.8593 C   0  0  0  0  0  0
   -8.4768  -22.7729   -4.1818 C   0  0  0  0  0  0
   -8.7478  -21.2849   -3.9914 C   0  0  0  0  0  0
   -7.6436  -20.7198   -3.2850 O   0  0  0  0  0  0
  -10.0403  -21.0714   -3.2101 C   0  0  0  0  0  0
   -9.9611  -21.7216   -1.8297 C   0  0  0  0  0  0
  -12.6082  -27.2004    0.7293 C   0  0  0  0  0  0
  -11.2063  -27.4050    1.2537 C   0  0  0  0  0  0
  -10.9373  -27.4900    2.7305 C   0  0  0  0  0  0
  -10.8344  -28.7243    1.8829 C   0  0  0  0  0  0
  -11.1963  -30.4916   -1.1391 C   0  0  0  0  0  0
  -10.3124  -33.7614   -1.5568 C   0  0  0  0  0  0
   -9.5023  -34.4773   -2.4404 C   0  0  0  0  0  0
   -5.4876  -35.7472   -1.7714 H   0  0  0  0  0  0
   -5.3765  -34.2785   -2.6315 H   0  0  0  0  0  0
  -10.8769  -28.1059   -2.4292 H   0  0  0  0  0  0
  -12.2103  -26.2100   -3.4596 H   0  0  0  0  0  0
  -12.6468  -23.2741   -1.4530 H   0  0  0  0  0  0
   -6.8665  -20.7473   -3.8690 H   0  0  0  0  0  0
  1  2  1  0  0  0
  1 44  1  0  0  0
  1 45  1  0  0  0
  2  3  2  0  0  0
  2  4  2  0  0  0
  2  5  1  0  0  0
  5  6  2  0  0  0
  5 43  1  0  0  0
  6  7  1  0  0  0
  7  8  2  0  0  0
  8  9  1  0  0  0
  8 42  1  0  0  0
  9 10  1  0  0  0
 10 11  2  0  0  0
 10 41  1  0  0  0
 11 12  1  0  0  0
 12 13  2  0  0  0
 13 14  1  0  0  0
 14 15  1  0  0  0
 14 41  2  0  0  0
 15 16  1  0  0  0
 15 46  1  0  0  0
 16 17  2  0  0  0
 16 18  1  0  0  0
 18 19  1  0  0  0
 18 47  1  0  0  0
 19 20  2  0  0  0
 19 24  1  0  0  0
 20 21  1  0  0  0
 20 25  1  0  0  0
 21 22  2  0  0  0
 22 23  1  0  0  0
 23 24  2  0  0  0
 25 26  1  0  0  0
 25 37  1  0  0  0
 26 27  1  0  0  0
 27 28  1  0  0  0
 27 48  1  0  0  0
 28 29  2  0  0  0
 28 30  1  0  0  0
 30 31  1  0  0  0
 30 36  1  0  0  0
 31 32  1  0  0  0
 32 33  1  0  0  0
 33 34  1  0  0  0
 33 35  1  0  0  0
 34 49  1  0  0  0
 35 36  1  0  0  0
 37 38  1  0  0  0
 38 39  1  0  0  0
 38 40  1  0  0  0
 39 40  1  0  0  0
 42 43  2  0  0  0
M  END
>  <AUTHOR>
    GENERATED BY OPEN BABEL 2.3.2

>  <CHROM.1>
-176.93093052,-2.99483633,131.28727398,133.75148157,-27.31999192,-76.06338409
-83.93352258,93.89540300,111.06249776,-63.21031111,166.12678309,-61.88032775
78.76218469,174.88788582,67.83561456,140.42076266,-10.84708255,-28.55429748
-1.79131150,-1.26861350,0.35979277,-0.11000003

>  <COMPND>
    UNNAMED

>  <MASTER>
        0    0    0    0    0    0    0    0   82    0   82    0

>  <Name>
ligands/mol6.pdb

>  <RI>
2.2834e+07

>  <Rbt.Current_Directory>
/home/rodrigo/Desktop/Rodrigo/Proyectos/test_OCONDOR/OCONDOR

>  <Rbt.Executable>
rbdock ($Id: //depot/dev/client3/rdock/2013.1/src/exe/rbdock.cxx#4 $)

>  <Rbt.Library>
libRbt.so (2013.1, Build901 2013/11/27)

>  <Rbt.Parameter_File>
dock.prm

>  <Rbt.Receptor>
rdock.prm

>  <SCORE>
-13.2555

>  <SCORE.INTER>
-2.79283

>  <SCORE.INTER.CONST>
1

>  <SCORE.INTER.POLAR>
-0.320737

>  <SCORE.INTER.REPUL>
0

>  <SCORE.INTER.ROT>
15

>  <SCORE.INTER.VDW>
-22.1023

>  <SCORE.INTER.norm>
-0.0649495

>  <SCORE.INTRA>
-10.4626

>  <SCORE.INTRA.DIHEDRAL>
-3.55161

>  <SCORE.INTRA.DIHEDRAL.0>
15.1377

>  <SCORE.INTRA.POLAR>
-1

>  <SCORE.INTRA.POLAR.0>
0

>  <SCORE.INTRA.REPUL>
0

>  <SCORE.INTRA.REPUL.0>
0

>  <SCORE.INTRA.VDW>
-5.28682

>  <SCORE.INTRA.VDW.0>
-4.46419

>  <SCORE.INTRA.norm>
-0.243317

>  <SCORE.RESTR>
0

>  <SCORE.RESTR.CAVITY>
0

>  <SCORE.RESTR.norm>
0

>  <SCORE.SYSTEM>
0

>  <SCORE.SYSTEM.CONST>
0

>  <SCORE.SYSTEM.DIHEDRAL>
0

>  <SCORE.SYSTEM.norm>
0

>  <SCORE.heavy>
43

>  <SCORE.norm>
-0.308266

$$$$
ligands/mol6.pdb
  rDOCK(R)          3D
libRbt.so/2013.1/901 2013/11/27
 49 53  0  0  0  0  0  0  0  0999 V2000
  -14.8792  -26.1269    0.2290 N   0  0  0  0  0  0
  -15.0796  -27.4983    1.1819 S   0  0  0  0  0  0
  -14.4579  -27.1706    2.4648 O   0  0  0  0  0  0
  -16.4546  -27.8552    1.0634 O   0  0  0  0  0  0
  -14.0681  -28.6997    0.3706 C   0  0  0  0  0  0
  -12.6975  -28.7437    0.6296 C   0  0  0  0  0  0
  -11.8947  -29.6512   -0.0671 C   0  0  0  0  0  0
  -12.4523  -30.5192   -1.0186 C   0  0  0  0  0  0
  -11.5680  -31.4850   -1.7743 C   0  0  0  0  0  0
  -10.4141  -30.8378   -2.5074 C   0  0  0  0  0  0
   -9.1023  -31.2719   -2.2655 C   0  0  0  0  0  0
   -8.0206  -30.6882   -2.9269 C   0  0  0  0  0  0
   -8.2387  -29.6992   -3.8800 C   0  0  0  0  0  0
   -9.5385  -29.2846   -4.1582 C   0  0  0  0  0  0
   -9.7763  -28.2907   -5.1149 N   0  0  0  0  0  0
   -9.2643  -27.0122   -5.0220 C   0  0  0  0  0  0
   -8.6375  -26.4226   -5.8972 O   0  0  0  0  0  0
   -9.5701  -26.3641   -3.8425 N   0  0  0  0  0  0
  -10.8473  -26.3055   -3.2569 C   0  0  0  0  0  0
  -11.0461  -25.7962   -1.9621 C   0  0  0  0  0  0
  -12.3693  -25.7878   -1.4889 C   0  0  0  0  0  0
  -13.3975  -26.2922   -2.2656 C   0  0  0  0  0  0
  -13.2299  -26.7278   -3.5236 N   0  0  0  0  0  0
  -11.9649  -26.7240   -3.9916 C   0  0  0  0  0  0
   -9.9255  -25.2610   -1.0584 C   0  0  0  0  0  0
   -9.0808  -24.1199   -1.7054 C   0  0  0  0  0  0
   -9.8156  -22.8841   -1.9813 N   0  0  0  0  0  0
  -10.5890  -22.6939   -3.1182 C   0  0  0  0  0  0
  -10.1150  -22.4925   -4.2313 O   0  0  0  0  0  0
  -12.1034  -22.8264   -2.8588 C   0  0  0  0  0  0
  -12.6678  -21.7540   -1.9046 C   0  0  0  0  0  0
  -13.1587  -20.4595   -2.5633 C   0  0  0  0  0  0
  -14.0071  -20.7169   -3.8034 C   0  0  0  0  0  0
  -15.2211  -21.3425   -3.3883 O   0  0  0  0  0  0
  -13.2604  -21.6123   -4.7870 C   0  0  0  0  0  0
  -12.9214  -22.9608   -4.1534 C   0  0  0  0  0  0
  -10.4421  -24.8433    0.3504 C   0  0  0  0  0  0
  -10.7443  -26.0531    1.2030 C   0  0  0  0  0  0
  -10.1472  -26.2018    2.5748 C   0  0  0  0  0  0
  -11.6101  -25.8999    2.4285 C   0  0  0  0  0  0
  -10.6216  -29.8183   -3.4502 C   0  0  0  0  0  0
  -13.8362  -30.4670   -1.2584 C   0  0  0  0  0  0
  -14.6431  -29.5614   -0.5666 C   0  0  0  0  0  0
  -15.0912  -25.2954    0.7770 H   0  0  0  0  0  0
  -15.4596  -26.2203   -0.6079 H   0  0  0  0  0  0
   -9.9908  -28.6035   -6.0495 H   0  0  0  0  0  0
   -8.7693  -26.3136   -3.2157 H   0  0  0  0  0  0
  -10.0578  -22.3131   -1.1839 H   0  0  0  0  0  0
  -15.7405  -20.6899   -2.8882 H   0  0  0  0  0  0
  1  2  1  0  0  0
  1 44  1  0  0  0
  1 45  1  0  0  0
  2  3  2  0  0  0
  2  4  2  0  0  0
  2  5  1  0  0  0
  5  6  2  0  0  0
  5 43  1  0  0  0
  6  7  1  0  0  0
  7  8  2  0  0  0
  8  9  1  0  0  0
  8 42  1  0  0  0
  9 10  1  0  0  0
 10 11  2  0  0  0
 10 41  1  0  0  0
 11 12  1  0  0  0
 12 13  2  0  0  0
 13 14  1  0  0  0
 14 15  1  0  0  0
 14 41  2  0  0  0
 15 16  1  0  0  0
 15 46  1  0  0  0
 16 17  2  0  0  0
 16 18  1  0  0  0
 18 19  1  0  0  0
 18 47  1  0  0  0
 19 20  2  0  0  0
 19 24  1  0  0  0
 20 21  1  0  0  0
 20 25  1  0  0  0
 21 22  2  0  0  0
 22 23  1  0  0  0
 23 24  2  0  0  0
 25 26  1  0  0  0
 25 37  1  0  0  0
 26 27  1  0  0  0
 27 28  1  0  0  0
 27 48  1  0  0  0
 28 29  2  0  0  0
 28 30  1  0  0  0
 30 31  1  0  0  0
 30 36  1  0  0  0
 31 32  1  0  0  0
 32 33  1  0  0  0
 33 34  1  0  0  0
 33 35  1  0  0  0
 34 49  1  0  0  0
 35 36  1  0  0  0
 37 38  1  0  0  0
 38 39  1  0  0  0
 38 40  1  0  0  0
 39 40  1  0  0  0
 42 43  2  0  0  0
M  END
>  <AUTHOR>
    GENERATED BY OPEN BABEL 2.3.2

>  <CHROM.1>
-43.85541469,83.28625752,-55.35746961,124.93284928,-59.87631130,128.32070584
-47.13168275,170.55064515,55.87855601,64.60734304,74.37564039,-82.80820983
-74.45198197,63.99497203,68.54390599,126.97008139,-11.86879488,-26.38046779
-1.83212415,1.44411317,-0.76849407,2.79799314

>  <COMPND>
    UNNAMED

>  <MASTER>
        0    0    0    0    0    0    0    0   82    0   82    0

>  <Name>
ligands/mol6.pdb

>  <RI>
2.2834e+07

>  <Rbt.Current_Directory>
/home/rodrigo/Desktop/Rodrigo/Proyectos/test_OCONDOR/OCONDOR

>  <Rbt.Executable>
rbdock ($Id: //depot/dev/client3/rdock/2013.1/src/exe/rbdock.cxx#4 $)

>  <Rbt.Library>
libRbt.so (2013.1, Build901 2013/11/27)

>  <Rbt.Parameter_File>
dock.prm

>  <Rbt.Receptor>
rdock.prm

>  <SCORE>
-9.0017

>  <SCORE.INTER>
-1.43689

>  <SCORE.INTER.CONST>
1

>  <SCORE.INTER.POLAR>
-0.388665

>  <SCORE.INTER.REPUL>
0

>  <SCORE.INTER.ROT>
15

>  <SCORE.INTER.VDW>
-20.5154

>  <SCORE.INTER.norm>
-0.033416

>  <SCORE.INTRA>
-7.56481

>  <SCORE.INTRA.DIHEDRAL>
-3.34832

>  <SCORE.INTRA.DIHEDRAL.0>
15.1377

>  <SCORE.INTRA.POLAR>
0

>  <SCORE.INTRA.POLAR.0>
0

>  <SCORE.INTRA.REPUL>
0

>  <SCORE.INTRA.REPUL.0>
0

>  <SCORE.INTRA.VDW>
-5.89065

>  <SCORE.INTRA.VDW.0>
-4.46419

>  <SCORE.INTRA.norm>
-0.175926

>  <SCORE.RESTR>
0

>  <SCORE.RESTR.CAVITY>
0

>  <SCORE.RESTR.norm>
0

>  <SCORE.SYSTEM>
0

>  <SCORE.SYSTEM.CONST>
0

>  <SCORE.SYSTEM.DIHEDRAL>
0

>  <SCORE.SYSTEM.norm>
0

>  <SCORE.heavy>
43

>  <SCORE.norm>
-0.209342

$$$$
ligands/mol6.pdb
  rDOCK(R)          3D
libRbt.so/2013.1/901 2013/11/27
 49 53  0  0  0  0  0  0  0  0999 V2000
   -3.7415  -31.9107   -1.7567 N   0  0  0  0  0  0
   -5.0463  -31.0077   -1.1991 S   0  0  0  0  0  0
   -4.9826  -31.0983    0.2595 O   0  0  0  0  0  0
   -4.9838  -29.7653   -1.8952 O   0  0  0  0  0  0
   -6.4426  -31.9422   -1.7485 C   0  0  0  0  0  0
   -6.3624  -32.6839   -2.9279 C   0  0  0  0  0  0
   -7.4923  -33.3644   -3.3905 C   0  0  0  0  0  0
   -8.7017  -33.3130   -2.6804 C   0  0  0  0  0  0
   -9.9189  -34.0428   -3.2019 C   0  0  0  0  0  0
  -10.8474  -33.1946   -4.0422 C   0  0  0  0  0  0
  -11.0043  -33.4748   -5.4077 C   0  0  0  0  0  0
  -11.8526  -32.7046   -6.2047 C   0  0  0  0  0  0
  -12.5982  -31.6768   -5.6372 C   0  0  0  0  0  0
  -12.4813  -31.4113   -4.2753 C   0  0  0  0  0  0
  -13.2246  -30.3809   -3.6875 N   0  0  0  0  0  0
  -13.2134  -30.1167   -2.3329 C   0  0  0  0  0  0
  -13.2233  -30.9546   -1.4360 O   0  0  0  0  0  0
  -13.1177  -28.7763   -2.0181 N   0  0  0  0  0  0
  -14.2075  -27.9096   -1.8216 C   0  0  0  0  0  0
  -14.2825  -26.6578   -2.4564 C   0  0  0  0  0  0
  -15.4230  -25.8841   -2.1821 C   0  0  0  0  0  0
  -16.3887  -26.3413   -1.3027 C   0  0  0  0  0  0
  -16.3573  -27.5569   -0.7354 N   0  0  0  0  0  0
  -15.2737  -28.3129   -1.0064 C   0  0  0  0  0  0
  -13.2141  -26.1028   -3.4099 C   0  0  0  0  0  0
  -11.7565  -26.5161   -3.0373 C   0  0  0  0  0  0
  -11.2978  -27.7740   -3.6295 N   0  0  0  0  0  0
   -9.9705  -28.0292   -3.9456 C   0  0  0  0  0  0
   -9.0906  -27.1758   -3.9043 O   0  0  0  0  0  0
   -9.6954  -29.5070   -4.2903 C   0  0  0  0  0  0
  -10.0701  -29.8890   -5.7370 C   0  0  0  0  0  0
   -8.9667  -29.7102   -6.7864 C   0  0  0  0  0  0
   -7.6180  -30.2435   -6.3171 C   0  0  0  0  0  0
   -7.7185  -31.6626   -6.2001 O   0  0  0  0  0  0
   -7.2362  -29.6280   -4.9746 C   0  0  0  0  0  0
   -8.2766  -29.9559   -3.9047 C   0  0  0  0  0  0
  -13.5210  -26.4234   -4.9029 C   0  0  0  0  0  0
  -12.7689  -25.4951   -5.8275 C   0  0  0  0  0  0
  -11.6918  -26.0155   -6.7382 C   0  0  0  0  0  0
  -13.0061  -25.5764   -7.3148 C   0  0  0  0  0  0
  -11.5823  -32.1362   -3.4845 C   0  0  0  0  0  0
   -8.7601  -32.5690   -1.4894 C   0  0  0  0  0  0
   -7.6351  -31.8858   -1.0231 C   0  0  0  0  0  0
   -3.9013  -32.8977   -1.5645 H   0  0  0  0  0  0
   -2.8849  -31.5479   -1.3316 H   0  0  0  0  0  0
  -13.4603  -29.5983   -4.2786 H   0  0  0  0  0  0
  -12.2580  -28.5623   -1.5162 H   0  0  0  0  0  0
  -11.8766  -28.5869   -3.4719 H   0  0  0  0  0  0
   -6.8549  -32.0028   -5.9099 H   0  0  0  0  0  0
  1  2  1  0  0  0
  1 44  1  0  0  0
  1 45  1  0  0  0
  2  3  2  0  0  0
  2  4  2  0  0  0
  2  5  1  0  0  0
  5  6  2  0  0  0
  5 43  1  0  0  0
  6  7  1  0  0  0
  7  8  2  0  0  0
  8  9  1  0  0  0
  8 42  1  0  0  0
  9 10  1  0  0  0
 10 11  2  0  0  0
 10 41  1  0  0  0
 11 12  1  0  0  0
 12 13  2  0  0  0
 13 14  1  0  0  0
 14 15  1  0  0  0
 14 41  2  0  0  0
 15 16  1  0  0  0
 15 46  1  0  0  0
 16 17  2  0  0  0
 16 18  1  0  0  0
 18 19  1  0  0  0
 18 47  1  0  0  0
 19 20  2  0  0  0
 19 24  1  0  0  0
 20 21  1  0  0  0
 20 25  1  0  0  0
 21 22  2  0  0  0
 22 23  1  0  0  0
 23 24  2  0  0  0
 25 26  1  0  0  0
 25 37  1  0  0  0
 26 27  1  0  0  0
 27 28  1  0  0  0
 27 48  1  0  0  0
 28 29  2  0  0  0
 28 30  1  0  0  0
 30 31  1  0  0  0
 30 36  1  0  0  0
 31 32  1  0  0  0
 32 33  1  0  0  0
 33 34  1  0  0  0
 33 35  1  0  0  0
 34 49  1  0  0  0
 35 36  1  0  0  0
 37 38  1  0  0  0
 38 39  1  0  0  0
 38 40  1  0  0  0
 39 40  1  0  0  0
 42 43  2  0  0  0
M  END
>  <AUTHOR>
    GENERATED BY OPEN BABEL 2.3.2

>  <CHROM.1>
68.70200983,-31.17126324,-94.39303521,113.58345303,176.13294264,-40.73127446
90.93793279,-130.86704943,-34.27943464,89.07381324,160.10696252,149.91221089
-8.80275924,80.84052824,179.39768862,113.94470443,-10.32186177,-29.81147209
-3.41455342,-0.38972665,0.37448098,-0.90383455

>  <COMPND>
    UNNAMED

>  <MASTER>
        0    0    0    0    0    0    0    0   82    0   82    0

>  <Name>
ligands/mol6.pdb

>  <RI>
2.2834e+07

>  <Rbt.Current_Directory>
/home/rodrigo/Desktop/Rodrigo/Proyectos/test_OCONDOR/OCONDOR

>  <Rbt.Executable>
rbdock ($Id: //depot/dev/client3/rdock/2013.1/src/exe/rbdock.cxx#4 $)

>  <Rbt.Library>
libRbt.so (2013.1, Build901 2013/11/27)

>  <Rbt.Parameter_File>
dock.prm

>  <Rbt.Receptor>
rdock.prm

>  <SCORE>
-6.86714

>  <SCORE.INTER>
0.385487

>  <SCORE.INTER.CONST>
1

>  <SCORE.INTER.POLAR>
0

>  <SCORE.INTER.REPUL>
0

>  <SCORE.INTER.ROT>
15

>  <SCORE.INTER.VDW>
-20.0145

>  <SCORE.INTER.norm>
0.00896482

>  <SCORE.INTRA>
-7.25263

>  <SCORE.INTRA.DIHEDRAL>
-0.245771

>  <SCORE.INTRA.DIHEDRAL.0>
15.1377

>  <SCORE.INTRA.POLAR>
-0.491695

>  <SCORE.INTRA.POLAR.0>
0

>  <SCORE.INTRA.REPUL>
0

>  <SCORE.INTRA.REPUL.0>
0

>  <SCORE.INTRA.VDW>
-5.45798

>  <SCORE.INTRA.VDW.0>
-4.46419

>  <SCORE.INTRA.norm>
-0.168666

>  <SCORE.RESTR>
0

>  <SCORE.RESTR.CAVITY>
0

>  <SCORE.RESTR.norm>
0

>  <SCORE.SYSTEM>
0

>  <SCORE.SYSTEM.CONST>
0

>  <SCORE.SYSTEM.DIHEDRAL>
0

>  <SCORE.SYSTEM.norm>
0

>  <SCORE.heavy>
43

>  <SCORE.norm>
-0.159701

$$$$
