ligands/mol5.pdb
  rDOCK(R)          3D
libRbt.so/2013.1/901 2013/11/27
 46 49  0  0  0  0  0  0  0  0999 V2000
  -16.3156  -32.2591   -3.4025 N   0  0  0  0  0  0
  -14.7572  -31.7046   -3.7915 S   0  0  0  0  0  0
  -13.8421  -32.8403   -3.7858 O   0  0  0  0  0  0
  -14.8822  -30.8375   -4.9255 O   0  0  0  0  0  0
  -14.3835  -30.6748   -2.3832 C   0  0  0  0  0  0
  -13.1655  -30.7823   -1.7098 C   0  0  0  0  0  0
  -12.9267  -29.9741   -0.5934 C   0  0  0  0  0  0
  -13.8862  -29.0505   -0.1478 C   0  0  0  0  0  0
  -13.6548  -28.2499    1.1262 C   0  0  0  0  0  0
  -13.1041  -26.8509    0.9151 C   0  0  0  0  0  0
  -11.7516  -26.5581    1.1440 C   0  0  0  0  0  0
  -11.2649  -25.2659    0.9842 C   0  0  0  0  0  0
  -12.1309  -24.2354    0.6469 C   0  0  0  0  0  0
  -13.5029  -24.4649    0.5094 C   0  0  0  0  0  0
  -14.4291  -23.3990    0.3302 N   0  0  0  0  0  0
  -14.2505  -22.3927   -0.6084 C   0  0  0  0  0  0
  -14.5732  -22.4827   -1.7855 O   0  0  0  0  0  0
  -13.6429  -21.2610   -0.0853 N   0  0  0  0  0  0
  -13.3290  -20.1160   -0.7909 C   0  0  0  0  0  0
  -13.5396  -20.0108   -2.1125 C   0  0  0  0  0  0
  -13.1737  -18.7646   -2.8975 C   0  0  0  0  0  0
  -11.8485  -18.9610   -3.6572 C   0  0  0  0  0  0
  -11.7640  -20.2808   -4.4376 C   0  0  0  0  0  0
  -11.6662  -21.4436   -3.5582 N   0  0  0  0  0  0
  -12.3294  -22.6259   -3.7834 C   0  0  0  0  0  0
  -13.0876  -22.7827   -4.7400 O   0  0  0  0  0  0
  -12.1289  -23.7024   -2.6896 C   0  0  0  0  0  0
  -13.0363  -24.9307   -2.8764 C   0  0  0  0  0  0
  -12.5952  -25.8618   -4.0120 C   0  0  0  0  0  0
  -11.1048  -26.1977   -4.0221 C   0  0  0  0  0  0
  -10.8415  -27.2414   -3.0910 O   0  0  0  0  0  0
  -10.2053  -24.9868   -3.7285 C   0  0  0  0  0  0
  -10.6819  -24.1809   -2.5228 C   0  0  0  0  0  0
  -13.1082  -17.5541   -1.9579 C   0  0  0  0  0  0
  -13.4593  -16.4428   -2.3524 O   0  0  0  0  0  0
  -12.5488  -17.7428   -0.7197 N   0  0  0  0  0  0
  -12.6684  -18.9158   -0.1882 C   0  0  0  0  0  0
  -13.9751  -25.7855    0.5949 C   0  0  0  0  0  0
  -15.0930  -28.9351   -0.8560 C   0  0  0  0  0  0
  -15.3452  -29.7422   -1.9709 C   0  0  0  0  0  0
  -16.3623  -33.1831   -2.9688 H   0  0  0  0  0  0
  -16.9227  -31.5750   -2.9352 H   0  0  0  0  0  0
  -15.0534  -23.2024    1.0998 H   0  0  0  0  0  0
  -13.4148  -21.2708    0.8977 H   0  0  0  0  0  0
  -10.9712  -21.3973   -2.8176 H   0  0  0  0  0  0
  -11.0823  -26.9455   -2.2017 H   0  0  0  0  0  0
  1  2  1  0  0  0
  1 41  1  0  0  0
  1 42  1  0  0  0
  2  3  2  0  0  0
  2  4  2  0  0  0
  2  5  1  0  0  0
  5  6  2  0  0  0
  5 40  1  0  0  0
  6  7  1  0  0  0
  7  8  2  0  0  0
  8  9  1  0  0  0
  8 39  1  0  0  0
  9 10  1  0  0  0
 10 11  2  0  0  0
 10 38  1  0  0  0
 11 12  1  0  0  0
 12 13  2  0  0  0
 13 14  1  0  0  0
 14 15  1  0  0  0
 14 38  2  0  0  0
 15 16  1  0  0  0
 15 43  1  0  0  0
 16 17  2  0  0  0
 16 18  1  0  0  0
 18 19  1  0  0  0
 18 44  1  0  0  0
 19 20  2  0  0  0
 19 37  1  0  0  0
 20 21  1  0  0  0
 21 22  1  0  0  0
 21 34  1  0  0  0
 22 23  1  0  0  0
 23 24  1  0  0  0
 24 25  1  0  0  0
 24 45  1  0  0  0
 25 26  2  0  0  0
 25 27  1  0  0  0
 27 28  1  0  0  0
 27 33  1  0  0  0
 28 29  1  0  0  0
 29 30  1  0  0  0
 30 31  1  0  0  0
 30 32  1  0  0  0
 31 46  1  0  0  0
 32 33  1  0  0  0
 34 35  2  0  0  0
 34 36  1  0  0  0
 36 37  2  0  0  0
 39 40  2  0  0  0
M  END
>  <AUTHOR>
    GENERATED BY OPEN BABEL 2.3.2

>  <CHROM.1>
16.94841767,132.05059453,97.30022810,-102.91110422,49.08928922,84.28130975
-3.01262842,47.54483209,-69.64826433,139.44923609,171.99477877,-61.21661718
-13.16150361,-25.01625727,-1.98121479,-2.29973404,1.37748638,0.77050452

>  <COMPND>
    UNNAMED

>  <MASTER>
        0    0    0    0    0    0    0    0   73    0   73    0

>  <Name>
ligands/mol5.pdb

>  <RI>
2.48739e+07

>  <Rbt.Current_Directory>
/home/rodrigo/Desktop/Rodrigo/Proyectos/test_OCONDOR/OCONDOR

>  <Rbt.Executable>
rbdock ($Id: //depot/dev/client3/rdock/2013.1/src/exe/rbdock.cxx#4 $)

>  <Rbt.Library>
libRbt.so (2013.1, Build901 2013/11/27)

>  <Rbt.Parameter_File>
dock.prm

>  <Rbt.Receptor>
rdock.prm

>  <SCORE>
-17.4914

>  <SCORE.INTER>
-12.4987

>  <SCORE.INTER.CONST>
1

>  <SCORE.INTER.POLAR>
-1.81482

>  <SCORE.INTER.REPUL>
0.00317202

>  <SCORE.INTER.ROT>
11

>  <SCORE.INTER.VDW>
-22.7442

>  <SCORE.INTER.norm>
-0.312467

>  <SCORE.INTRA>
-4.99273

>  <SCORE.INTRA.DIHEDRAL>
-1.14238

>  <SCORE.INTRA.DIHEDRAL.0>
8.44371

>  <SCORE.INTRA.POLAR>
0

>  <SCORE.INTRA.POLAR.0>
0

>  <SCORE.INTRA.REPUL>
0

>  <SCORE.INTRA.REPUL.0>
0

>  <SCORE.INTRA.VDW>
-4.42154

>  <SCORE.INTRA.VDW.0>
-2.13059

>  <SCORE.INTRA.norm>
-0.124818

>  <SCORE.RESTR>
0

>  <SCORE.RESTR.CAVITY>
0

>  <SCORE.RESTR.norm>
0

>  <SCORE.SYSTEM>
0

>  <SCORE.SYSTEM.CONST>
0

>  <SCORE.SYSTEM.DIHEDRAL>
0

>  <SCORE.SYSTEM.norm>
0

>  <SCORE.heavy>
40

>  <SCORE.norm>
-0.437285

$$$$
ligands/mol5.pdb
  rDOCK(R)          3D
libRbt.so/2013.1/901 2013/11/27
 46 49  0  0  0  0  0  0  0  0999 V2000
   -4.7552  -32.7800    1.7840 N   0  0  0  0  0  0
   -4.6497  -32.3989    0.1314 S   0  0  0  0  0  0
   -4.5809  -30.9489   -0.0103 O   0  0  0  0  0  0
   -3.6642  -33.2644   -0.4454 O   0  0  0  0  0  0
   -6.2404  -32.9466   -0.4629 C   0  0  0  0  0  0
   -6.4765  -34.2876   -0.7704 C   0  0  0  0  0  0
   -7.7306  -34.6673   -1.2600 C   0  0  0  0  0  0
   -8.7568  -33.7245   -1.4355 C   0  0  0  0  0  0
  -10.0822  -34.1330   -2.0629 C   0  0  0  0  0  0
  -10.2698  -33.7023   -3.5066 C   0  0  0  0  0  0
   -9.3760  -34.1060   -4.5093 C   0  0  0  0  0  0
   -9.5349  -33.6757   -5.8215 C   0  0  0  0  0  0
  -10.5557  -32.7923   -6.1429 C   0  0  0  0  0  0
  -11.4058  -32.2857   -5.1557 C   0  0  0  0  0  0
  -12.3482  -31.2552   -5.4316 N   0  0  0  0  0  0
  -12.6897  -30.2768   -4.5089 C   0  0  0  0  0  0
  -12.1473  -29.1824   -4.4320 O   0  0  0  0  0  0
  -13.7081  -30.6671   -3.6522 N   0  0  0  0  0  0
  -14.2373  -29.9045   -2.6296 C   0  0  0  0  0  0
  -13.7472  -28.6957   -2.3123 C   0  0  0  0  0  0
  -14.3084  -27.8640   -1.1737 C   0  0  0  0  0  0
  -13.4178  -27.9711    0.0781 C   0  0  0  0  0  0
  -12.3820  -26.8448    0.2077 C   0  0  0  0  0  0
  -11.6784  -26.5869   -1.0466 N   0  0  0  0  0  0
  -11.6664  -25.3649   -1.6751 C   0  0  0  0  0  0
  -12.2809  -24.3934   -1.2357 O   0  0  0  0  0  0
  -10.9088  -25.3352   -3.0244 C   0  0  0  0  0  0
  -11.4726  -26.3271   -4.0565 C   0  0  0  0  0  0
  -12.8017  -25.8855   -4.6808 C   0  0  0  0  0  0
  -12.8369  -24.4319   -5.1498 C   0  0  0  0  0  0
  -12.2234  -24.3253   -6.4296 O   0  0  0  0  0  0
  -12.1759  -23.4570   -4.1628 C   0  0  0  0  0  0
  -10.8163  -23.9495   -3.6739 C   0  0  0  0  0  0
  -15.7508  -28.2909   -0.8748 C   0  0  0  0  0  0
  -16.5831  -27.4578   -0.5180 O   0  0  0  0  0  0
  -16.0361  -29.6319   -0.9161 N   0  0  0  0  0  0
  -15.3468  -30.3593   -1.7339 C   0  0  0  0  0  0
  -11.2890  -32.7850   -3.8475 C   0  0  0  0  0  0
   -8.5102  -32.3857   -1.0921 C   0  0  0  0  0  0
   -7.2578  -31.9933   -0.6066 C   0  0  0  0  0  0
   -5.3457  -32.1629    2.3448 H   0  0  0  0  0  0
   -4.9097  -33.7726    1.9982 H   0  0  0  0  0  0
  -13.0007  -31.4231   -6.1845 H   0  0  0  0  0  0
  -14.1021  -31.5859   -3.7901 H   0  0  0  0  0  0
  -11.0716  -27.3274   -1.3890 H   0  0  0  0  0  0
  -12.7344  -24.8360   -7.0733 H   0  0  0  0  0  0
  1  2  1  0  0  0
  1 41  1  0  0  0
  1 42  1  0  0  0
  2  3  2  0  0  0
  2  4  2  0  0  0
  2  5  1  0  0  0
  5  6  2  0  0  0
  5 40  1  0  0  0
  6  7  1  0  0  0
  7  8  2  0  0  0
  8  9  1  0  0  0
  8 39  1  0  0  0
  9 10  1  0  0  0
 10 11  2  0  0  0
 10 38  1  0  0  0
 11 12  1  0  0  0
 12 13  2  0  0  0
 13 14  1  0  0  0
 14 15  1  0  0  0
 14 38  2  0  0  0
 15 16  1  0  0  0
 15 43  1  0  0  0
 16 17  2  0  0  0
 16 18  1  0  0  0
 18 19  1  0  0  0
 18 44  1  0  0  0
 19 20  2  0  0  0
 19 37  1  0  0  0
 20 21  1  0  0  0
 21 22  1  0  0  0
 21 34  1  0  0  0
 22 23  1  0  0  0
 23 24  1  0  0  0
 24 25  1  0  0  0
 24 45  1  0  0  0
 25 26  2  0  0  0
 25 27  1  0  0  0
 27 28  1  0  0  0
 27 33  1  0  0  0
 28 29  1  0  0  0
 29 30  1  0  0  0
 30 31  1  0  0  0
 30 32  1  0  0  0
 31 46  1  0  0  0
 32 33  1  0  0  0
 34 35  2  0  0  0
 34 36  1  0  0  0
 36 37  2  0  0  0
 39 40  2  0  0  0
M  END
>  <AUTHOR>
    GENERATED BY OPEN BABEL 2.3.2

>  <CHROM.1>
39.44826364,-82.08271976,-103.68182927,58.63916738,-145.54619024,92.89782987
-3.78898914,94.70269539,-45.90451959,122.01795288,58.59629782,63.42868676
-10.69068086,-29.78096103,-2.35521905,-0.68122825,-0.43557826,0.18984046

>  <COMPND>
    UNNAMED

>  <MASTER>
        0    0    0    0    0    0    0    0   73    0   73    0

>  <Name>
ligands/mol5.pdb

>  <RI>
2.48739e+07

>  <Rbt.Current_Directory>
/home/rodrigo/Desktop/Rodrigo/Proyectos/test_OCONDOR/OCONDOR

>  <Rbt.Executable>
rbdock ($Id: //depot/dev/client3/rdock/2013.1/src/exe/rbdock.cxx#4 $)

>  <Rbt.Library>
libRbt.so (2013.1, Build901 2013/11/27)

>  <Rbt.Parameter_File>
dock.prm

>  <Rbt.Receptor>
rdock.prm

>  <SCORE>
-14.3253

>  <SCORE.INTER>
-12.3718

>  <SCORE.INTER.CONST>
1

>  <SCORE.INTER.POLAR>
-1.80334

>  <SCORE.INTER.REPUL>
0

>  <SCORE.INTER.ROT>
11

>  <SCORE.INTER.VDW>
-22.6404

>  <SCORE.INTER.norm>
-0.309294

>  <SCORE.INTRA>
-1.95351

>  <SCORE.INTRA.DIHEDRAL>
1.30073

>  <SCORE.INTRA.DIHEDRAL.0>
8.44371

>  <SCORE.INTRA.POLAR>
0

>  <SCORE.INTRA.POLAR.0>
0

>  <SCORE.INTRA.REPUL>
0

>  <SCORE.INTRA.REPUL.0>
0

>  <SCORE.INTRA.VDW>
-2.60388

>  <SCORE.INTRA.VDW.0>
-2.13059

>  <SCORE.INTRA.norm>
-0.0488378

>  <SCORE.RESTR>
0

>  <SCORE.RESTR.CAVITY>
0

>  <SCORE.RESTR.norm>
0

>  <SCORE.SYSTEM>
0

>  <SCORE.SYSTEM.CONST>
0

>  <SCORE.SYSTEM.DIHEDRAL>
0

>  <SCORE.SYSTEM.norm>
0

>  <SCORE.heavy>
40

>  <SCORE.norm>
-0.358132

$$$$
ligands/mol5.pdb
  rDOCK(R)          3D
libRbt.so/2013.1/901 2013/11/27
 46 49  0  0  0  0  0  0  0  0999 V2000
  -15.0292  -19.1942   -2.3942 N   0  0  0  0  0  0
  -15.9214  -20.4546   -3.1032 S   0  0  0  0  0  0
  -17.3340  -20.0917   -3.0910 O   0  0  0  0  0  0
  -15.2459  -20.8311   -4.3095 O   0  0  0  0  0  0
  -15.6700  -21.7738   -1.9285 C   0  0  0  0  0  0
  -14.3872  -22.1636   -1.5401 C   0  0  0  0  0  0
  -14.2368  -23.2216   -0.6376 C   0  0  0  0  0  0
  -15.3540  -23.8884   -0.1087 C   0  0  0  0  0  0
  -15.1742  -25.1016    0.7932 C   0  0  0  0  0  0
  -15.3033  -26.4447    0.0972 C   0  0  0  0  0  0
  -15.4146  -27.6365    0.8285 C   0  0  0  0  0  0
  -15.4944  -28.8645    0.1823 C   0  0  0  0  0  0
  -15.4093  -28.9271   -1.2014 C   0  0  0  0  0  0
  -15.1959  -27.7737   -1.9617 C   0  0  0  0  0  0
  -14.9387  -27.8323   -3.3604 N   0  0  0  0  0  0
  -14.0449  -28.7296   -3.9273 C   0  0  0  0  0  0
  -14.3728  -29.7591   -4.5022 O   0  0  0  0  0  0
  -12.7194  -28.3562   -3.7627 N   0  0  0  0  0  0
  -11.6213  -29.0651   -4.2089 C   0  0  0  0  0  0
  -11.7399  -30.2449   -4.8383 C   0  0  0  0  0  0
  -10.5360  -31.0402   -5.3086 C   0  0  0  0  0  0
  -10.2193  -32.1892   -4.3333 C   0  0  0  0  0  0
   -9.1628  -33.1762   -4.8508 C   0  0  0  0  0  0
   -8.8185  -34.1946   -3.8610 N   0  0  0  0  0  0
   -8.1681  -33.9206   -2.6819 C   0  0  0  0  0  0
   -7.7971  -32.7856   -2.3839 O   0  0  0  0  0  0
   -7.8497  -35.1603   -1.8118 C   0  0  0  0  0  0
   -7.1307  -36.2763   -2.5892 C   0  0  0  0  0  0
   -5.6548  -35.9791   -2.8798 C   0  0  0  0  0  0
   -4.8589  -35.4592   -1.6839 C   0  0  0  0  0  0
   -4.4569  -36.5504   -0.8635 O   0  0  0  0  0  0
   -5.6240  -34.4216   -0.8475 C   0  0  0  0  0  0
   -7.0536  -34.8577   -0.5370 C   0  0  0  0  0  0
   -9.3310  -30.1087   -5.4892 C   0  0  0  0  0  0
   -8.5175  -30.3142   -6.3891 O   0  0  0  0  0  0
   -9.1467  -29.1227   -4.5537 N   0  0  0  0  0  0
  -10.2035  -28.6416   -3.9840 C   0  0  0  0  0  0
  -15.1951  -26.5293   -1.3090 C   0  0  0  0  0  0
  -16.6370  -23.4625   -0.4877 C   0  0  0  0  0  0
  -16.7996  -22.4088   -1.3940 C   0  0  0  0  0  0
  -15.1426  -18.2741   -2.8240 H   0  0  0  0  0  0
  -15.0610  -19.1549   -1.3683 H   0  0  0  0  0  0
  -15.1691  -27.0109   -3.9017 H   0  0  0  0  0  0
  -12.5397  -27.4884   -3.2800 H   0  0  0  0  0  0
   -9.1983  -35.1251   -4.0141 H   0  0  0  0  0  0
   -3.8490  -37.1170   -1.3594 H   0  0  0  0  0  0
  1  2  1  0  0  0
  1 41  1  0  0  0
  1 42  1  0  0  0
  2  3  2  0  0  0
  2  4  2  0  0  0
  2  5  1  0  0  0
  5  6  2  0  0  0
  5 40  1  0  0  0
  6  7  1  0  0  0
  7  8  2  0  0  0
  8  9  1  0  0  0
  8 39  1  0  0  0
  9 10  1  0  0  0
 10 11  2  0  0  0
 10 38  1  0  0  0
 11 12  1  0  0  0
 12 13  2  0  0  0
 13 14  1  0  0  0
 14 15  1  0  0  0
 14 38  2  0  0  0
 15 16  1  0  0  0
 15 43  1  0  0  0
 16 17  2  0  0  0
 16 18  1  0  0  0
 18 19  1  0  0  0
 18 44  1  0  0  0
 19 20  2  0  0  0
 19 37  1  0  0  0
 20 21  1  0  0  0
 21 22  1  0  0  0
 21 34  1  0  0  0
 22 23  1  0  0  0
 23 24  1  0  0  0
 24 25  1  0  0  0
 24 45  1  0  0  0
 25 26  2  0  0  0
 25 27  1  0  0  0
 27 28  1  0  0  0
 27 33  1  0  0  0
 28 29  1  0  0  0
 29 30  1  0  0  0
 30 31  1  0  0  0
 30 32  1  0  0  0
 31 46  1  0  0  0
 32 33  1  0  0  0
 34 35  2  0  0  0
 34 36  1  0  0  0
 36 37  2  0  0  0
 39 40  2  0  0  0
M  END
>  <AUTHOR>
    GENERATED BY OPEN BABEL 2.3.2

>  <CHROM.1>
-56.81167276,-53.75566284,-97.36899477,-167.80344890,-45.35056795,101.74450623
-1.80559499,170.57745576,175.82869300,-66.80500669,51.26491025,64.32538016
-11.99917042,-28.43624422,-2.59058115,-2.62364063,-0.83646320,2.28180164

>  <COMPND>
    UNNAMED

>  <MASTER>
        0    0    0    0    0    0    0    0   73    0   73    0

>  <Name>
ligands/mol5.pdb

>  <RI>
2.48739e+07

>  <Rbt.Current_Directory>
/home/rodrigo/Desktop/Rodrigo/Proyectos/test_OCONDOR/OCONDOR

>  <Rbt.Executable>
rbdock ($Id: //depot/dev/client3/rdock/2013.1/src/exe/rbdock.cxx#4 $)

>  <Rbt.Library>
libRbt.so (2013.1, Build901 2013/11/27)

>  <Rbt.Parameter_File>
dock.prm

>  <Rbt.Receptor>
rdock.prm

>  <SCORE>
-12.6169

>  <SCORE.INTER>
-10.8155

>  <SCORE.INTER.CONST>
1

>  <SCORE.INTER.POLAR>
-0.727191

>  <SCORE.INTER.REPUL>
0.0249567

>  <SCORE.INTER.ROT>
11

>  <SCORE.INTER.VDW>
-24.8679

>  <SCORE.INTER.norm>
-0.270388

>  <SCORE.INTRA>
-1.80135

>  <SCORE.INTRA.DIHEDRAL>
-1.88117

>  <SCORE.INTRA.DIHEDRAL.0>
8.44371

>  <SCORE.INTRA.POLAR>
0

>  <SCORE.INTRA.POLAR.0>
0

>  <SCORE.INTRA.REPUL>
0

>  <SCORE.INTRA.REPUL.0>
0

>  <SCORE.INTRA.VDW>
-0.860771

>  <SCORE.INTRA.VDW.0>
-2.13059

>  <SCORE.INTRA.norm>
-0.0450339

>  <SCORE.RESTR>
0

>  <SCORE.RESTR.CAVITY>
0

>  <SCORE.RESTR.norm>
0

>  <SCORE.SYSTEM>
0

>  <SCORE.SYSTEM.CONST>
0

>  <SCORE.SYSTEM.DIHEDRAL>
0

>  <SCORE.SYSTEM.norm>
0

>  <SCORE.heavy>
40

>  <SCORE.norm>
-0.315422

$$$$
ligands/mol5.pdb
  rDOCK(R)          3D
libRbt.so/2013.1/901 2013/11/27
 46 49  0  0  0  0  0  0  0  0999 V2000
  -16.2811  -32.0752   -2.8669 N   0  0  0  0  0  0
  -14.7198  -31.4538   -3.1195 S   0  0  0  0  0  0
  -13.7533  -32.5311   -2.9391 O   0  0  0  0  0  0
  -14.7613  -30.6650   -4.3150 O   0  0  0  0  0  0
  -14.5611  -30.3214   -1.7498 C   0  0  0  0  0  0
  -13.3795  -30.2387   -1.0112 C   0  0  0  0  0  0
  -13.3095  -29.3565    0.0721 C   0  0  0  0  0  0
  -14.4029  -28.5465    0.4199 C   0  0  0  0  0  0
  -14.3482  -27.6657    1.6604 C   0  0  0  0  0  0
  -13.1099  -26.7950    1.7765 C   0  0  0  0  0  0
  -12.6582  -26.3331    3.0214 C   0  0  0  0  0  0
  -11.5452  -25.5055    3.1137 C   0  0  0  0  0  0
  -10.8986  -25.0816    1.9613 C   0  0  0  0  0  0
  -11.3771  -25.4357    0.6966 C   0  0  0  0  0  0
  -10.8337  -24.8792   -0.4956 N   0  0  0  0  0  0
  -10.6897  -25.6036   -1.6702 C   0  0  0  0  0  0
  -11.5143  -26.4033   -2.0924 O   0  0  0  0  0  0
   -9.4939  -25.3485   -2.3248 N   0  0  0  0  0  0
   -9.0792  -25.9369   -3.5035 C   0  0  0  0  0  0
   -9.7974  -26.8904   -4.1175 C   0  0  0  0  0  0
   -9.3348  -27.5581   -5.3994 C   0  0  0  0  0  0
   -8.7245  -28.9423   -5.1107 C   0  0  0  0  0  0
   -7.5700  -28.9187   -4.0985 C   0  0  0  0  0  0
   -6.9988  -30.2446   -3.8728 N   0  0  0  0  0  0
   -7.5408  -31.1706   -3.0143 C   0  0  0  0  0  0
   -8.5442  -30.9356   -2.3417 O   0  0  0  0  0  0
   -6.7355  -32.4859   -2.8840 C   0  0  0  0  0  0
   -7.1129  -33.3051   -1.6376 C   0  0  0  0  0  0
   -8.4608  -34.0267   -1.7534 C   0  0  0  0  0  0
   -8.6729  -34.7803   -3.0653 C   0  0  0  0  0  0
   -8.0238  -36.0453   -3.0029 O   0  0  0  0  0  0
   -8.1951  -34.0003   -4.3001 C   0  0  0  0  0  0
   -6.8040  -33.4004   -4.1126 C   0  0  0  0  0  0
   -8.3421  -26.6491   -6.1347 C   0  0  0  0  0  0
   -8.3218  -26.6194   -7.3646 O   0  0  0  0  0  0
   -7.4241  -25.9689   -5.3758 N   0  0  0  0  0  0
   -7.7773  -25.6348   -4.1772 C   0  0  0  0  0  0
  -12.4535  -26.3350    0.6129 C   0  0  0  0  0  0
  -15.5723  -28.6216   -0.3533 C   0  0  0  0  0  0
  -15.6558  -29.5043   -1.4358 C   0  0  0  0  0  0
  -17.0170  -31.6777   -3.4539 H   0  0  0  0  0  0
  -16.3424  -33.0982   -2.7993 H   0  0  0  0  0  0
  -10.2624  -24.0521   -0.3941 H   0  0  0  0  0  0
   -8.8739  -24.6699   -1.9082 H   0  0  0  0  0  0
   -6.2347  -30.5212   -4.4838 H   0  0  0  0  0  0
   -7.0870  -35.9148   -2.7983 H   0  0  0  0  0  0
  1  2  1  0  0  0
  1 41  1  0  0  0
  1 42  1  0  0  0
  2  3  2  0  0  0
  2  4  2  0  0  0
  2  5  1  0  0  0
  5  6  2  0  0  0
  5 40  1  0  0  0
  6  7  1  0  0  0
  7  8  2  0  0  0
  8  9  1  0  0  0
  8 39  1  0  0  0
  9 10  1  0  0  0
 10 11  2  0  0  0
 10 38  1  0  0  0
 11 12  1  0  0  0
 12 13  2  0  0  0
 13 14  1  0  0  0
 14 15  1  0  0  0
 14 38  2  0  0  0
 15 16  1  0  0  0
 15 43  1  0  0  0
 16 17  2  0  0  0
 16 18  1  0  0  0
 18 19  1  0  0  0
 18 44  1  0  0  0
 19 20  2  0  0  0
 19 37  1  0  0  0
 20 21  1  0  0  0
 21 22  1  0  0  0
 21 34  1  0  0  0
 22 23  1  0  0  0
 23 24  1  0  0  0
 24 25  1  0  0  0
 24 45  1  0  0  0
 25 26  2  0  0  0
 25 27  1  0  0  0
 27 28  1  0  0  0
 27 33  1  0  0  0
 28 29  1  0  0  0
 29 30  1  0  0  0
 30 31  1  0  0  0
 30 32  1  0  0  0
 31 46  1  0  0  0
 32 33  1  0  0  0
 34 35  2  0  0  0
 34 36  1  0  0  0
 36 37  2  0  0  0
 39 40  2  0  0  0
M  END
>  <AUTHOR>
    GENERATED BY OPEN BABEL 2.3.2

>  <CHROM.1>
-144.70907397,137.45620327,50.15425016,-155.67840505,143.85402555,40.05435938
-3.09565093,-55.72096568,-178.75875622,-82.04073031,162.67209422,-56.20232329
-10.82452829,-29.23177233,-2.26487937,2.36376182,0.51118519,0.22755363

>  <COMPND>
    UNNAMED

>  <MASTER>
        0    0    0    0    0    0    0    0   73    0   73    0

>  <Name>
ligands/mol5.pdb

>  <RI>
2.48739e+07

>  <Rbt.Current_Directory>
/home/rodrigo/Desktop/Rodrigo/Proyectos/test_OCONDOR/OCONDOR

>  <Rbt.Executable>
rbdock ($Id: //depot/dev/client3/rdock/2013.1/src/exe/rbdock.cxx#4 $)

>  <Rbt.Library>
libRbt.so (2013.1, Build901 2013/11/27)

>  <Rbt.Parameter_File>
dock.prm

>  <Rbt.Receptor>
rdock.prm

>  <SCORE>
-10.6667

>  <SCORE.INTER>
-10.601

>  <SCORE.INTER.CONST>
1

>  <SCORE.INTER.POLAR>
-0.701061

>  <SCORE.INTER.REPUL>
0.0020437

>  <SCORE.INTER.ROT>
11

>  <SCORE.INTER.VDW>
-24.6276

>  <SCORE.INTER.norm>
-0.265025

>  <SCORE.INTRA>
-0.0656906

>  <SCORE.INTRA.DIHEDRAL>
-0.465826

>  <SCORE.INTRA.DIHEDRAL.0>
8.44371

>  <SCORE.INTRA.POLAR>
0

>  <SCORE.INTRA.POLAR.0>
0

>  <SCORE.INTRA.REPUL>
0

>  <SCORE.INTRA.REPUL.0>
0

>  <SCORE.INTRA.VDW>
0.167223

>  <SCORE.INTRA.VDW.0>
-2.13059

>  <SCORE.INTRA.norm>
-0.00164227

>  <SCORE.RESTR>
0

>  <SCORE.RESTR.CAVITY>
0

>  <SCORE.RESTR.norm>
0

>  <SCORE.SYSTEM>
0

>  <SCORE.SYSTEM.CONST>
0

>  <SCORE.SYSTEM.DIHEDRAL>
0

>  <SCORE.SYSTEM.norm>
0

>  <SCORE.heavy>
40

>  <SCORE.norm>
-0.266667

$$$$
ligands/mol5.pdb
  rDOCK(R)          3D
libRbt.so/2013.1/901 2013/11/27
 46 49  0  0  0  0  0  0  0  0999 V2000
  -10.1556  -22.5718   -5.0766 N   0  0  0  0  0  0
  -11.4291  -22.1392   -4.0380 S   0  0  0  0  0  0
  -11.4156  -20.6917   -3.8599 O   0  0  0  0  0  0
  -12.5991  -22.8375   -4.4816 O   0  0  0  0  0  0
  -10.9144  -22.8985   -2.5077 C   0  0  0  0  0  0
  -11.4107  -22.4606   -1.2787 C   0  0  0  0  0  0
  -10.9580  -23.0667   -0.1022 C   0  0  0  0  0  0
  -10.0230  -24.1140   -0.1389 C   0  0  0  0  0  0
   -9.4637  -24.6961    1.1517 C   0  0  0  0  0  0
  -10.5068  -25.1520    2.1563 C   0  0  0  0  0  0
  -10.2429  -25.1463    3.5339 C   0  0  0  0  0  0
  -11.1909  -25.6009    4.4432 C   0  0  0  0  0  0
  -12.3952  -26.1193    3.9887 C   0  0  0  0  0  0
  -12.6568  -26.2375    2.6207 C   0  0  0  0  0  0
  -13.8082  -26.9165    2.1314 N   0  0  0  0  0  0
  -13.7351  -28.0540    1.3401 C   0  0  0  0  0  0
  -14.6722  -28.5074    0.6966 O   0  0  0  0  0  0
  -12.4845  -28.6531    1.3608 N   0  0  0  0  0  0
  -12.1305  -29.8027    0.6822 C   0  0  0  0  0  0
  -10.8901  -30.3128    0.7391 C   0  0  0  0  0  0
  -10.4887  -31.5615   -0.0242 C   0  0  0  0  0  0
   -9.7133  -31.1995   -1.3046 C   0  0  0  0  0  0
   -9.0578  -32.4013   -2.0004 C   0  0  0  0  0  0
   -9.9525  -33.0476   -2.9580 N   0  0  0  0  0  0
  -10.4261  -32.4325   -4.0919 C   0  0  0  0  0  0
  -10.1505  -31.2661   -4.3712 O   0  0  0  0  0  0
  -11.4099  -33.2835   -4.9306 C   0  0  0  0  0  0
  -12.2747  -32.4426   -5.8854 C   0  0  0  0  0  0
  -11.5191  -31.9260   -7.1155 C   0  0  0  0  0  0
  -10.6653  -32.9731   -7.8288 C   0  0  0  0  0  0
  -11.4856  -33.7579   -8.6872 O   0  0  0  0  0  0
   -9.8849  -33.8816   -6.8660 C   0  0  0  0  0  0
  -10.7534  -34.4153   -5.7297 C   0  0  0  0  0  0
  -11.7305  -32.4047   -0.3392 C   0  0  0  0  0  0
  -11.6612  -33.6331   -0.3448 O   0  0  0  0  0  0
  -12.8697  -31.7391   -0.7142 N   0  0  0  0  0  0
  -13.0501  -30.5537   -0.2290 C   0  0  0  0  0  0
  -11.7285  -25.7043    1.7106 C   0  0  0  0  0  0
   -9.5580  -24.5611   -1.3860 C   0  0  0  0  0  0
   -9.9997  -23.9588   -2.5693 C   0  0  0  0  0  0
   -9.2449  -22.1647   -4.8553 H   0  0  0  0  0  0
  -10.0939  -23.5712   -5.3054 H   0  0  0  0  0  0
  -14.6692  -26.3890    2.0976 H   0  0  0  0  0  0
  -11.7677  -28.2086    1.9149 H   0  0  0  0  0  0
  -10.1202  -34.0415   -2.8252 H   0  0  0  0  0  0
  -10.9338  -34.3940   -9.1640 H   0  0  0  0  0  0
  1  2  1  0  0  0
  1 41  1  0  0  0
  1 42  1  0  0  0
  2  3  2  0  0  0
  2  4  2  0  0  0
  2  5  1  0  0  0
  5  6  2  0  0  0
  5 40  1  0  0  0
  6  7  1  0  0  0
  7  8  2  0  0  0
  8  9  1  0  0  0
  8 39  1  0  0  0
  9 10  1  0  0  0
 10 11  2  0  0  0
 10 38  1  0  0  0
 11 12  1  0  0  0
 12 13  2  0  0  0
 13 14  1  0  0  0
 14 15  1  0  0  0
 14 38  2  0  0  0
 15 16  1  0  0  0
 15 43  1  0  0  0
 16 17  2  0  0  0
 16 18  1  0  0  0
 18 19  1  0  0  0
 18 44  1  0  0  0
 19 20  2  0  0  0
 19 37  1  0  0  0
 20 21  1  0  0  0
 21 22  1  0  0  0
 21 34  1  0  0  0
 22 23  1  0  0  0
 23 24  1  0  0  0
 24 25  1  0  0  0
 24 45  1  0  0  0
 25 26  2  0  0  0
 25 27  1  0  0  0
 27 28  1  0  0  0
 27 33  1  0  0  0
 28 29  1  0  0  0
 29 30  1  0  0  0
 30 31  1  0  0  0
 30 32  1  0  0  0
 31 46  1  0  0  0
 32 33  1  0  0  0
 34 35  2  0  0  0
 34 36  1  0  0  0
 36 37  2  0  0  0
 39 40  2  0  0  0
M  END
>  <AUTHOR>
    GENERATED BY OPEN BABEL 2.3.2

>  <CHROM.1>
48.17014677,158.78741726,53.36921252,-151.49538554,-117.60771434,-165.22236669
179.11239344,169.68920509,88.43537560,64.20127717,160.26291639,177.61872697
-11.30257832,-28.17444538,-1.76501553,-1.83208588,-1.44571125,-2.95711802

>  <COMPND>
    UNNAMED

>  <MASTER>
        0    0    0    0    0    0    0    0   73    0   73    0

>  <Name>
ligands/mol5.pdb

>  <RI>
2.48739e+07

>  <Rbt.Current_Directory>
/home/rodrigo/Desktop/Rodrigo/Proyectos/test_OCONDOR/OCONDOR

>  <Rbt.Executable>
rbdock ($Id: //depot/dev/client3/rdock/2013.1/src/exe/rbdock.cxx#4 $)

>  <Rbt.Library>
libRbt.so (2013.1, Build901 2013/11/27)

>  <Rbt.Parameter_File>
dock.prm

>  <Rbt.Receptor>
rdock.prm

>  <SCORE>
-10.5389

>  <SCORE.INTER>
-9.82268

>  <SCORE.INTER.CONST>
1

>  <SCORE.INTER.POLAR>
0

>  <SCORE.INTER.REPUL>
0.0192339

>  <SCORE.INTER.ROT>
11

>  <SCORE.INTER.VDW>
-26.3188

>  <SCORE.INTER.norm>
-0.245567

>  <SCORE.INTRA>
-0.71623

>  <SCORE.INTRA.DIHEDRAL>
0.723957

>  <SCORE.INTRA.DIHEDRAL.0>
8.44371

>  <SCORE.INTRA.POLAR>
0

>  <SCORE.INTRA.POLAR.0>
0

>  <SCORE.INTRA.REPUL>
0

>  <SCORE.INTRA.REPUL.0>
0

>  <SCORE.INTRA.VDW>
-1.07821

>  <SCORE.INTRA.VDW.0>
-2.13059

>  <SCORE.INTRA.norm>
-0.0179058

>  <SCORE.RESTR>
0

>  <SCORE.RESTR.CAVITY>
0

>  <SCORE.RESTR.norm>
0

>  <SCORE.SYSTEM>
0

>  <SCORE.SYSTEM.CONST>
0

>  <SCORE.SYSTEM.DIHEDRAL>
0

>  <SCORE.SYSTEM.norm>
0

>  <SCORE.heavy>
40

>  <SCORE.norm>
-0.263473

$$$$
ligands/mol5.pdb
  rDOCK(R)          3D
libRbt.so/2013.1/901 2013/11/27
 46 49  0  0  0  0  0  0  0  0999 V2000
  -12.5739  -23.7517   -7.6741 N   0  0  0  0  0  0
  -12.8030  -25.4165   -7.4222 S   0  0  0  0  0  0
  -14.1748  -25.7588   -7.7800 O   0  0  0  0  0  0
  -11.6784  -26.0948   -7.9952 O   0  0  0  0  0  0
  -12.6385  -25.5346   -5.6495 C   0  0  0  0  0  0
  -12.0429  -26.6453   -5.0495 C   0  0  0  0  0  0
  -11.9605  -26.7081   -3.6545 C   0  0  0  0  0  0
  -12.4561  -25.6683   -2.8509 C   0  0  0  0  0  0
  -12.4511  -25.7948   -1.3339 C   0  0  0  0  0  0
  -13.5231  -26.7045   -0.7611 C   0  0  0  0  0  0
  -14.7379  -26.1892   -0.2854 C   0  0  0  0  0  0
  -15.6978  -27.0261    0.2718 C   0  0  0  0  0  0
  -15.4382  -28.3819    0.4130 C   0  0  0  0  0  0
  -14.2012  -28.9194    0.0457 C   0  0  0  0  0  0
  -13.8523  -30.2688    0.3346 N   0  0  0  0  0  0
  -13.0875  -31.0509   -0.5191 C   0  0  0  0  0  0
  -13.5329  -31.6528   -1.4871 O   0  0  0  0  0  0
  -11.7499  -31.1053   -0.1569 N   0  0  0  0  0  0
  -10.7658  -31.8181   -0.8133 C   0  0  0  0  0  0
   -9.4770  -31.7659   -0.4413 C   0  0  0  0  0  0
   -8.3878  -32.5273   -1.1741 C   0  0  0  0  0  0
   -7.6060  -31.5970   -2.1203 C   0  0  0  0  0  0
   -6.5221  -32.3084   -2.9431 C   0  0  0  0  0  0
   -5.5499  -33.0037   -2.1026 N   0  0  0  0  0  0
   -4.7768  -32.3768   -1.1552 C   0  0  0  0  0  0
   -4.8271  -31.1621   -0.9642 O   0  0  0  0  0  0
   -3.7705  -33.2977   -0.4240 C   0  0  0  0  0  0
   -2.7773  -32.5255    0.4616 C   0  0  0  0  0  0
   -3.3887  -31.9953    1.7639 C   0  0  0  0  0  0
   -4.2317  -33.0097    2.5348 C   0  0  0  0  0  0
   -3.3824  -33.8560    3.3016 O   0  0  0  0  0  0
   -5.1454  -33.8537    1.6325 C   0  0  0  0  0  0
   -4.4143  -34.4091    0.4130 C   0  0  0  0  0  0
   -8.9967  -33.7144   -1.9306 C   0  0  0  0  0  0
   -8.3694  -34.7671   -2.0415 O   0  0  0  0  0  0
  -10.2002  -33.5158   -2.5581 N   0  0  0  0  0  0
  -11.0088  -32.6556   -2.0297 C   0  0  0  0  0  0
  -13.2668  -28.0831   -0.5883 C   0  0  0  0  0  0
  -13.0245  -24.5456   -3.4735 C   0  0  0  0  0  0
  -13.1172  -24.4742   -4.8679 C   0  0  0  0  0  0
  -12.3006  -23.4797   -8.6204 H   0  0  0  0  0  0
  -13.3044  -23.1428   -7.2860 H   0  0  0  0  0  0
  -14.4258  -30.7539    1.0103 H   0  0  0  0  0  0
  -11.4679  -30.5738    0.6533 H   0  0  0  0  0  0
   -5.5508  -34.0193   -2.1502 H   0  0  0  0  0  0
   -2.8928  -33.3220    3.9431 H   0  0  0  0  0  0
  1  2  1  0  0  0
  1 41  1  0  0  0
  1 42  1  0  0  0
  2  3  2  0  0  0
  2  4  2  0  0  0
  2  5  1  0  0  0
  5  6  2  0  0  0
  5 40  1  0  0  0
  6  7  1  0  0  0
  7  8  2  0  0  0
  8  9  1  0  0  0
  8 39  1  0  0  0
  9 10  1  0  0  0
 10 11  2  0  0  0
 10 38  1  0  0  0
 11 12  1  0  0  0
 12 13  2  0  0  0
 13 14  1  0  0  0
 14 15  1  0  0  0
 14 38  2  0  0  0
 15 16  1  0  0  0
 15 43  1  0  0  0
 16 17  2  0  0  0
 16 18  1  0  0  0
 18 19  1  0  0  0
 18 44  1  0  0  0
 19 20  2  0  0  0
 19 37  1  0  0  0
 20 21  1  0  0  0
 21 22  1  0  0  0
 21 34  1  0  0  0
 22 23  1  0  0  0
 23 24  1  0  0  0
 24 25  1  0  0  0
 24 45  1  0  0  0
 25 26  2  0  0  0
 25 27  1  0  0  0
 27 28  1  0  0  0
 27 33  1  0  0  0
 28 29  1  0  0  0
 29 30  1  0  0  0
 30 31  1  0  0  0
 30 32  1  0  0  0
 31 46  1  0  0  0
 32 33  1  0  0  0
 34 35  2  0  0  0
 34 36  1  0  0  0
 36 37  2  0  0  0
 39 40  2  0  0  0
M  END
>  <AUTHOR>
    GENERATED BY OPEN BABEL 2.3.2

>  <CHROM.1>
-86.48636134,-144.53079266,-75.65463190,-96.27875289,144.32170849,-82.52297401
176.47945757,-177.57499860,-57.06926526,-59.10501234,170.89083190,61.57822644
-10.04867315,-29.74856794,-1.99092232,-2.39382116,-0.38339976,2.16134785

>  <COMPND>
    UNNAMED

>  <MASTER>
        0    0    0    0    0    0    0    0   73    0   73    0

>  <Name>
ligands/mol5.pdb

>  <RI>
2.48739e+07

>  <Rbt.Current_Directory>
/home/rodrigo/Desktop/Rodrigo/Proyectos/test_OCONDOR/OCONDOR

>  <Rbt.Executable>
rbdock ($Id: //depot/dev/client3/rdock/2013.1/src/exe/rbdock.cxx#4 $)

>  <Rbt.Library>
libRbt.so (2013.1, Build901 2013/11/27)

>  <Rbt.Parameter_File>
dock.prm

>  <Rbt.Receptor>
rdock.prm

>  <SCORE>
-12.6796

>  <SCORE.INTER>
-9.66153

>  <SCORE.INTER.CONST>
1

>  <SCORE.INTER.POLAR>
-1.26627

>  <SCORE.INTER.REPUL>
0

>  <SCORE.INTER.ROT>
11

>  <SCORE.INTER.VDW>
-21.7562

>  <SCORE.INTER.norm>
-0.241538

>  <SCORE.INTRA>
-3.01811

>  <SCORE.INTRA.DIHEDRAL>
-2.47182

>  <SCORE.INTRA.DIHEDRAL.0>
8.44371

>  <SCORE.INTRA.POLAR>
0

>  <SCORE.INTRA.POLAR.0>
0

>  <SCORE.INTRA.REPUL>
0

>  <SCORE.INTRA.REPUL.0>
0

>  <SCORE.INTRA.VDW>
-1.7822

>  <SCORE.INTRA.VDW.0>
-2.13059

>  <SCORE.INTRA.norm>
-0.0754528

>  <SCORE.RESTR>
0

>  <SCORE.RESTR.CAVITY>
0

>  <SCORE.RESTR.norm>
0

>  <SCORE.SYSTEM>
0

>  <SCORE.SYSTEM.CONST>
0

>  <SCORE.SYSTEM.DIHEDRAL>
0

>  <SCORE.SYSTEM.norm>
0

>  <SCORE.heavy>
40

>  <SCORE.norm>
-0.316991

$$$$
ligands/mol5.pdb
  rDOCK(R)          3D
libRbt.so/2013.1/901 2013/11/27
 46 49  0  0  0  0  0  0  0  0999 V2000
   -3.2887  -29.0743   -3.4471 N   0  0  0  0  0  0
   -4.6561  -28.2935   -2.8086 S   0  0  0  0  0  0
   -4.4076  -27.9901   -1.4038 O   0  0  0  0  0  0
   -5.0474  -27.2817   -3.7448 O   0  0  0  0  0  0
   -5.8796  -29.5893   -2.8958 C   0  0  0  0  0  0
   -7.0567  -29.4263   -3.6281 C   0  0  0  0  0  0
   -8.0007  -30.4584   -3.6456 C   0  0  0  0  0  0
   -7.7778  -31.6573   -2.9488 C   0  0  0  0  0  0
   -8.8559  -32.7308   -2.8936 C   0  0  0  0  0  0
   -9.7573  -32.6744   -1.6733 C   0  0  0  0  0  0
   -9.3154  -33.1230   -0.4199 C   0  0  0  0  0  0
  -10.1608  -33.1022    0.6833 C   0  0  0  0  0  0
  -11.4767  -32.6851    0.5411 C   0  0  0  0  0  0
  -11.9863  -32.3268   -0.7103 C   0  0  0  0  0  0
  -13.3698  -32.0580   -0.9095 N   0  0  0  0  0  0
  -13.8869  -30.7725   -0.9825 C   0  0  0  0  0  0
  -14.2995  -30.1398   -0.0196 O   0  0  0  0  0  0
  -13.9124  -30.2676   -2.2740 N   0  0  0  0  0  0
  -14.3873  -29.0247   -2.6439 C   0  0  0  0  0  0
  -14.4044  -28.6179   -3.9231 C   0  0  0  0  0  0
  -14.9018  -27.2440   -4.3329 C   0  0  0  0  0  0
  -13.7240  -26.2869   -4.5949 C   0  0  0  0  0  0
  -12.9888  -25.8364   -3.3243 C   0  0  0  0  0  0
  -13.8252  -25.0059   -2.4605 N   0  0  0  0  0  0
  -14.0954  -23.6816   -2.7081 C   0  0  0  0  0  0
  -13.6214  -23.0830   -3.6734 O   0  0  0  0  0  0
  -14.9536  -22.9801   -1.6279 C   0  0  0  0  0  0
  -14.3349  -23.0550   -0.2213 C   0  0  0  0  0  0
  -13.1379  -22.1185   -0.0186 C   0  0  0  0  0  0
  -13.3517  -20.6896   -0.5152 C   0  0  0  0  0  0
  -14.0735  -19.9453    0.4598 O   0  0  0  0  0  0
  -14.0673  -20.6172   -1.8732 C   0  0  0  0  0  0
  -15.2978  -21.5183   -1.9364 C   0  0  0  0  0  0
  -15.8488  -26.6889   -3.2618 C   0  0  0  0  0  0
  -16.8114  -25.9938   -3.5847 O   0  0  0  0  0  0
  -15.5175  -26.9068   -1.9487 N   0  0  0  0  0  0
  -14.8607  -27.9869   -1.6749 C   0  0  0  0  0  0
  -11.1062  -32.2750   -1.8044 C   0  0  0  0  0  0
   -6.5746  -31.8147   -2.2426 C   0  0  0  0  0  0
   -5.6254  -30.7870   -2.2135 C   0  0  0  0  0  0
   -3.4282  -29.5562   -4.3373 H   0  0  0  0  0  0
   -2.4200  -28.5265   -3.4292 H   0  0  0  0  0  0
  -14.0165  -32.8000   -0.6812 H   0  0  0  0  0  0
  -13.5473  -30.8561   -3.0081 H   0  0  0  0  0  0
  -14.3229  -25.4831   -1.7134 H   0  0  0  0  0  0
  -13.5367  -19.8612    1.2606 H   0  0  0  0  0  0
  1  2  1  0  0  0
  1 41  1  0  0  0
  1 42  1  0  0  0
  2  3  2  0  0  0
  2  4  2  0  0  0
  2  5  1  0  0  0
  5  6  2  0  0  0
  5 40  1  0  0  0
  6  7  1  0  0  0
  7  8  2  0  0  0
  8  9  1  0  0  0
  8 39  1  0  0  0
  9 10  1  0  0  0
 10 11  2  0  0  0
 10 38  1  0  0  0
 11 12  1  0  0  0
 12 13  2  0  0  0
 13 14  1  0  0  0
 14 15  1  0  0  0
 14 38  2  0  0  0
 15 16  1  0  0  0
 15 43  1  0  0  0
 16 17  2  0  0  0
 16 18  1  0  0  0
 18 19  1  0  0  0
 18 44  1  0  0  0
 19 20  2  0  0  0
 19 37  1  0  0  0
 20 21  1  0  0  0
 21 22  1  0  0  0
 21 34  1  0  0  0
 22 23  1  0  0  0
 23 24  1  0  0  0
 24 25  1  0  0  0
 24 45  1  0  0  0
 25 26  2  0  0  0
 25 27  1  0  0  0
 27 28  1  0  0  0
 27 33  1  0  0  0
 28 29  1  0  0  0
 29 30  1  0  0  0
 30 31  1  0  0  0
 30 32  1  0  0  0
 31 46  1  0  0  0
 32 33  1  0  0  0
 34 35  2  0  0  0
 34 36  1  0  0  0
 36 37  2  0  0  0
 39 40  2  0  0  0
M  END
>  <AUTHOR>
    GENERATED BY OPEN BABEL 2.3.2

>  <CHROM.1>
164.26182999,-121.00683789,-94.26320329,-76.16450218,100.74797298,-90.69941300
-178.54562518,-72.19931307,-66.18694140,-77.08959087,56.88734255,64.88822321
-11.29009584,-27.78224417,-2.10268670,-0.74897930,0.09376241,-0.04604992

>  <COMPND>
    UNNAMED

>  <MASTER>
        0    0    0    0    0    0    0    0   73    0   73    0

>  <Name>
ligands/mol5.pdb

>  <RI>
2.48739e+07

>  <Rbt.Current_Directory>
/home/rodrigo/Desktop/Rodrigo/Proyectos/test_OCONDOR/OCONDOR

>  <Rbt.Executable>
rbdock ($Id: //depot/dev/client3/rdock/2013.1/src/exe/rbdock.cxx#4 $)

>  <Rbt.Library>
libRbt.so (2013.1, Build901 2013/11/27)

>  <Rbt.Parameter_File>
dock.prm

>  <Rbt.Receptor>
rdock.prm

>  <SCORE>
-9.81086

>  <SCORE.INTER>
-5.43068

>  <SCORE.INTER.CONST>
1

>  <SCORE.INTER.POLAR>
0

>  <SCORE.INTER.REPUL>
0

>  <SCORE.INTER.ROT>
11

>  <SCORE.INTER.VDW>
-21.8307

>  <SCORE.INTER.norm>
-0.135767

>  <SCORE.INTRA>
-4.39229

>  <SCORE.INTRA.DIHEDRAL>
-2.05707

>  <SCORE.INTRA.DIHEDRAL.0>
8.44371

>  <SCORE.INTRA.POLAR>
-0.436194

>  <SCORE.INTRA.POLAR.0>
0

>  <SCORE.INTRA.REPUL>
0

>  <SCORE.INTRA.REPUL.0>
0

>  <SCORE.INTRA.VDW>
-1.88069

>  <SCORE.INTRA.VDW.0>
-2.13059

>  <SCORE.INTRA.norm>
-0.109807

>  <SCORE.RESTR>
0.0121065

>  <SCORE.RESTR.CAVITY>
0.0121065

>  <SCORE.RESTR.norm>
0.000302663

>  <SCORE.SYSTEM>
0

>  <SCORE.SYSTEM.CONST>
0

>  <SCORE.SYSTEM.DIHEDRAL>
0

>  <SCORE.SYSTEM.norm>
0

>  <SCORE.heavy>
40

>  <SCORE.norm>
-0.245272

$$$$
ligands/mol5.pdb
  rDOCK(R)          3D
libRbt.so/2013.1/901 2013/11/27
 46 49  0  0  0  0  0  0  0  0999 V2000
  -10.6204  -26.7296   -6.0232 N   0  0  0  0  0  0
   -9.0164  -26.6644   -6.5803 S   0  0  0  0  0  0
   -9.0097  -26.9199   -8.0163 O   0  0  0  0  0  0
   -8.4147  -25.4928   -6.0160 O   0  0  0  0  0  0
   -8.2952  -28.0727   -5.7557 C   0  0  0  0  0  0
   -8.4914  -29.3701   -6.2320 C   0  0  0  0  0  0
   -7.9300  -30.4467   -5.5374 C   0  0  0  0  0  0
   -7.1645  -30.2421   -4.3779 C   0  0  0  0  0  0
   -6.6445  -31.4272   -3.5763 C   0  0  0  0  0  0
   -7.4884  -31.8098   -2.3736 C   0  0  0  0  0  0
   -6.9977  -32.6751   -1.3848 C   0  0  0  0  0  0
   -7.7916  -33.0492   -0.3069 C   0  0  0  0  0  0
   -9.1054  -32.6094   -0.2275 C   0  0  0  0  0  0
   -9.6653  -31.8292   -1.2432 C   0  0  0  0  0  0
  -11.0517  -31.5077   -1.2666 N   0  0  0  0  0  0
  -11.6311  -30.5975   -0.3942 C   0  0  0  0  0  0
  -11.5373  -30.6552    0.8247 O   0  0  0  0  0  0
  -12.3568  -29.6084   -1.0411 N   0  0  0  0  0  0
  -13.0497  -28.5845   -0.4256 C   0  0  0  0  0  0
  -13.7651  -27.6865   -1.1213 C   0  0  0  0  0  0
  -14.5080  -26.5447   -0.4525 C   0  0  0  0  0  0
  -13.7197  -25.2274   -0.5750 C   0  0  0  0  0  0
  -13.6343  -24.6797   -2.0071 C   0  0  0  0  0  0
  -13.5014  -23.2250   -2.0411 N   0  0  0  0  0  0
  -12.4105  -22.5488   -1.5503 C   0  0  0  0  0  0
  -11.4663  -23.1263   -1.0121 O   0  0  0  0  0  0
  -12.5096  -21.0066   -1.6344 C   0  0  0  0  0  0
  -13.6685  -20.4288   -0.8038 C   0  0  0  0  0  0
  -13.4094  -20.4278    0.7075 C   0  0  0  0  0  0
  -12.0384  -19.8960    1.1216 C   0  0  0  0  0  0
  -12.0622  -18.4732    1.1450 O   0  0  0  0  0  0
  -10.8955  -20.3917    0.2219 C   0  0  0  0  0  0
  -11.2209  -20.2631   -1.2640 C   0  0  0  0  0  0
  -14.7943  -26.8934    1.0133 C   0  0  0  0  0  0
  -15.8340  -26.5127    1.5500 O   0  0  0  0  0  0
  -13.8091  -27.5410    1.7146 N   0  0  0  0  0  0
  -13.0248  -28.3243    1.0481 C   0  0  0  0  0  0
   -8.8350  -31.3905   -2.2886 C   0  0  0  0  0  0
   -6.9528  -28.9280   -3.9312 C   0  0  0  0  0  0
   -7.5139  -27.8436   -4.6148 C   0  0  0  0  0  0
  -11.2580  -26.0399   -6.4254 H   0  0  0  0  0  0
  -11.0340  -27.6688   -5.9805 H   0  0  0  0  0  0
  -11.6679  -32.1761   -1.7075 H   0  0  0  0  0  0
  -12.3769  -29.6341   -2.0498 H   0  0  0  0  0  0
  -14.2045  -22.7158   -2.5703 H   0  0  0  0  0  0
  -12.6854  -18.1744    1.8224 H   0  0  0  0  0  0
  1  2  1  0  0  0
  1 41  1  0  0  0
  1 42  1  0  0  0
  2  3  2  0  0  0
  2  4  2  0  0  0
  2  5  1  0  0  0
  5  6  2  0  0  0
  5 40  1  0  0  0
  6  7  1  0  0  0
  7  8  2  0  0  0
  8  9  1  0  0  0
  8 39  1  0  0  0
  9 10  1  0  0  0
 10 11  2  0  0  0
 10 38  1  0  0  0
 11 12  1  0  0  0
 12 13  2  0  0  0
 13 14  1  0  0  0
 14 15  1  0  0  0
 14 38  2  0  0  0
 15 16  1  0  0  0
 15 43  1  0  0  0
 16 17  2  0  0  0
 16 18  1  0  0  0
 18 19  1  0  0  0
 18 44  1  0  0  0
 19 20  2  0  0  0
 19 37  1  0  0  0
 20 21  1  0  0  0
 21 22  1  0  0  0
 21 34  1  0  0  0
 22 23  1  0  0  0
 23 24  1  0  0  0
 24 25  1  0  0  0
 24 45  1  0  0  0
 25 26  2  0  0  0
 25 27  1  0  0  0
 27 28  1  0  0  0
 27 33  1  0  0  0
 28 29  1  0  0  0
 29 30  1  0  0  0
 30 31  1  0  0  0
 30 32  1  0  0  0
 31 46  1  0  0  0
 32 33  1  0  0  0
 34 35  2  0  0  0
 34 36  1  0  0  0
 36 37  2  0  0  0
 39 40  2  0  0  0
M  END
>  <AUTHOR>
    GENERATED BY OPEN BABEL 2.3.2

>  <CHROM.1>
-61.63026801,78.97133069,-97.31630627,-165.98041929,72.76803862,-53.90002705
-177.87512005,68.25973696,151.88087362,65.02294403,62.48208679,63.78706118
-10.89123868,-26.84794248,-2.02630877,-0.80207119,0.91115380,-0.31445661

>  <COMPND>
    UNNAMED

>  <MASTER>
        0    0    0    0    0    0    0    0   73    0   73    0

>  <Name>
ligands/mol5.pdb

>  <RI>
2.48739e+07

>  <Rbt.Current_Directory>
/home/rodrigo/Desktop/Rodrigo/Proyectos/test_OCONDOR/OCONDOR

>  <Rbt.Executable>
rbdock ($Id: //depot/dev/client3/rdock/2013.1/src/exe/rbdock.cxx#4 $)

>  <Rbt.Library>
libRbt.so (2013.1, Build901 2013/11/27)

>  <Rbt.Parameter_File>
dock.prm

>  <Rbt.Receptor>
rdock.prm

>  <SCORE>
-5.82565

>  <SCORE.INTER>
-5.16948

>  <SCORE.INTER.CONST>
1

>  <SCORE.INTER.POLAR>
-0.944251

>  <SCORE.INTER.REPUL>
0.0288973

>  <SCORE.INTER.ROT>
11

>  <SCORE.INTER.VDW>
-18.5035

>  <SCORE.INTER.norm>
-0.129237

>  <SCORE.INTRA>
-0.659687

>  <SCORE.INTRA.DIHEDRAL>
0.782681

>  <SCORE.INTRA.DIHEDRAL.0>
8.44371

>  <SCORE.INTRA.POLAR>
0

>  <SCORE.INTRA.POLAR.0>
0

>  <SCORE.INTRA.REPUL>
0

>  <SCORE.INTRA.REPUL.0>
0

>  <SCORE.INTRA.VDW>
-1.05103

>  <SCORE.INTRA.VDW.0>
-2.13059

>  <SCORE.INTRA.norm>
-0.0164922

>  <SCORE.RESTR>
0.00352047

>  <SCORE.RESTR.CAVITY>
0.00352047

>  <SCORE.RESTR.norm>
8.80117e-05

>  <SCORE.SYSTEM>
0

>  <SCORE.SYSTEM.CONST>
0

>  <SCORE.SYSTEM.DIHEDRAL>
0

>  <SCORE.SYSTEM.norm>
0

>  <SCORE.heavy>
40

>  <SCORE.norm>
-0.145641

$$$$
ligands/mol5.pdb
  rDOCK(R)          3D
libRbt.so/2013.1/901 2013/11/27
 46 49  0  0  0  0  0  0  0  0999 V2000
   -6.9969  -28.7035   -6.0710 N   0  0  0  0  0  0
   -7.0378  -28.2517   -4.4334 S   0  0  0  0  0  0
   -5.7309  -28.5173   -3.8427 O   0  0  0  0  0  0
   -7.6540  -26.9601   -4.3611 O   0  0  0  0  0  0
   -8.2042  -29.4268   -3.7686 C   0  0  0  0  0  0
   -7.7837  -30.4957   -2.9756 C   0  0  0  0  0  0
   -8.7303  -31.4086   -2.4989 C   0  0  0  0  0  0
  -10.0950  -31.2602   -2.7956 C   0  0  0  0  0  0
  -11.1006  -32.3149   -2.3555 C   0  0  0  0  0  0
  -12.5574  -31.9381   -2.5574 C   0  0  0  0  0  0
  -13.2318  -32.2478   -3.7476 C   0  0  0  0  0  0
  -14.5545  -31.8654   -3.9378 C   0  0  0  0  0  0
  -15.2077  -31.1204   -2.9661 C   0  0  0  0  0  0
  -14.5409  -30.7035   -1.8105 C   0  0  0  0  0  0
  -15.1358  -29.8021   -0.8832 N   0  0  0  0  0  0
  -15.4171  -28.4786   -1.1905 C   0  0  0  0  0  0
  -15.5662  -28.0515   -2.3276 O   0  0  0  0  0  0
  -15.4956  -27.6639   -0.0708 N   0  0  0  0  0  0
  -15.7460  -26.3057   -0.0786 C   0  0  0  0  0  0
  -15.8674  -25.6080   -1.2190 C   0  0  0  0  0  0
  -16.1177  -24.1113   -1.2337 C   0  0  0  0  0  0
  -14.8164  -23.3375   -1.5162 C   0  0  0  0  0  0
  -15.0086  -21.8208   -1.6602 C   0  0  0  0  0  0
  -13.7460  -21.1159   -1.8699 N   0  0  0  0  0  0
  -13.1041  -20.3968   -0.8905 C   0  0  0  0  0  0
  -13.5682  -20.2684    0.2420 O   0  0  0  0  0  0
  -11.8118  -19.6805   -1.3512 C   0  0  0  0  0  0
  -11.1690  -18.8235   -0.2471 C   0  0  0  0  0  0
  -10.4487  -19.6398    0.8327 C   0  0  0  0  0  0
   -9.5286  -20.7365    0.2988 C   0  0  0  0  0  0
   -8.2783  -20.1720   -0.0801 O   0  0  0  0  0  0
  -10.1334  -21.5207   -0.8761 C   0  0  0  0  0  0
  -10.7423  -20.6089   -1.9383 C   0  0  0  0  0  0
  -16.7548  -23.6737    0.0910 C   0  0  0  0  0  0
  -17.5853  -22.7661    0.1101 O   0  0  0  0  0  0
  -16.2849  -24.2534    1.2419 N   0  0  0  0  0  0
  -15.8387  -25.4644    1.1558 C   0  0  0  0  0  0
  -13.2305  -31.1597   -1.5892 C   0  0  0  0  0  0
  -10.5025  -30.1619   -3.5695 C   0  0  0  0  0  0
   -9.5640  -29.2453   -4.0563 C   0  0  0  0  0  0
   -6.4063  -28.1287   -6.6751 H   0  0  0  0  0  0
   -6.8792  -29.7084   -6.2480 H   0  0  0  0  0  0
  -15.0616  -30.0397    0.0960 H   0  0  0  0  0  0
  -15.3643  -28.1007    0.8294 H   0  0  0  0  0  0
  -13.2735  -21.2817   -2.7547 H   0  0  0  0  0  0
   -7.8203  -19.8492    0.7089 H   0  0  0  0  0  0
  1  2  1  0  0  0
  1 41  1  0  0  0
  1 42  1  0  0  0
  2  3  2  0  0  0
  2  4  2  0  0  0
  2  5  1  0  0  0
  5  6  2  0  0  0
  5 40  1  0  0  0
  6  7  1  0  0  0
  7  8  2  0  0  0
  8  9  1  0  0  0
  8 39  1  0  0  0
  9 10  1  0  0  0
 10 11  2  0  0  0
 10 38  1  0  0  0
 11 12  1  0  0  0
 12 13  2  0  0  0
 13 14  1  0  0  0
 14 15  1  0  0  0
 14 38  2  0  0  0
 15 16  1  0  0  0
 15 43  1  0  0  0
 16 17  2  0  0  0
 16 18  1  0  0  0
 18 19  1  0  0  0
 18 44  1  0  0  0
 19 20  2  0  0  0
 19 37  1  0  0  0
 20 21  1  0  0  0
 21 22  1  0  0  0
 21 34  1  0  0  0
 22 23  1  0  0  0
 23 24  1  0  0  0
 24 25  1  0  0  0
 24 45  1  0  0  0
 25 26  2  0  0  0
 25 27  1  0  0  0
 27 28  1  0  0  0
 27 33  1  0  0  0
 28 29  1  0  0  0
 29 30  1  0  0  0
 30 31  1  0  0  0
 30 32  1  0  0  0
 31 46  1  0  0  0
 32 33  1  0  0  0
 34 35  2  0  0  0
 34 36  1  0  0  0
 36 37  2  0  0  0
 39 40  2  0  0  0
M  END
>  <AUTHOR>
    GENERATED BY OPEN BABEL 2.3.2

>  <CHROM.1>
-68.33483831,106.15501056,171.40406789,90.39631294,-66.60957312,22.53588009
-3.94968664,175.29408212,177.53159569,-103.53369845,176.72748672,66.72464794
-12.13701200,-26.19504134,-1.85521953,-1.27445389,0.28811963,0.23216293

>  <COMPND>
    UNNAMED

>  <MASTER>
        0    0    0    0    0    0    0    0   73    0   73    0

>  <Name>
ligands/mol5.pdb

>  <RI>
2.48739e+07

>  <Rbt.Current_Directory>
/home/rodrigo/Desktop/Rodrigo/Proyectos/test_OCONDOR/OCONDOR

>  <Rbt.Executable>
rbdock ($Id: //depot/dev/client3/rdock/2013.1/src/exe/rbdock.cxx#4 $)

>  <Rbt.Library>
libRbt.so (2013.1, Build901 2013/11/27)

>  <Rbt.Parameter_File>
dock.prm

>  <Rbt.Receptor>
rdock.prm

>  <SCORE>
-6.86047

>  <SCORE.INTER>
-5.05143

>  <SCORE.INTER.CONST>
1

>  <SCORE.INTER.POLAR>
-0.246617

>  <SCORE.INTER.REPUL>
0.314927

>  <SCORE.INTER.ROT>
11

>  <SCORE.INTER.VDW>
-22.1876

>  <SCORE.INTER.norm>
-0.126286

>  <SCORE.INTRA>
-1.80904

>  <SCORE.INTRA.DIHEDRAL>
-2.30982

>  <SCORE.INTRA.DIHEDRAL.0>
8.44371

>  <SCORE.INTRA.POLAR>
0

>  <SCORE.INTRA.POLAR.0>
0

>  <SCORE.INTRA.REPUL>
0

>  <SCORE.INTRA.REPUL.0>
0

>  <SCORE.INTRA.VDW>
-0.654132

>  <SCORE.INTRA.VDW.0>
-2.13059

>  <SCORE.INTRA.norm>
-0.045226

>  <SCORE.RESTR>
0

>  <SCORE.RESTR.CAVITY>
0

>  <SCORE.RESTR.norm>
0

>  <SCORE.SYSTEM>
0

>  <SCORE.SYSTEM.CONST>
0

>  <SCORE.SYSTEM.DIHEDRAL>
0

>  <SCORE.SYSTEM.norm>
0

>  <SCORE.heavy>
40

>  <SCORE.norm>
-0.171512

$$$$
ligands/mol5.pdb
  rDOCK(R)          3D
libRbt.so/2013.1/901 2013/11/27
 46 49  0  0  0  0  0  0  0  0999 V2000
  -16.5291  -27.1896   -0.3764 N   0  0  0  0  0  0
  -15.2958  -26.8579   -1.4973 S   0  0  0  0  0  0
  -14.0630  -27.4855   -1.0350 O   0  0  0  0  0  0
  -15.8279  -27.1047   -2.8046 O   0  0  0  0  0  0
  -15.1248  -25.0902   -1.3263 C   0  0  0  0  0  0
  -13.9977  -24.5259   -0.7266 C   0  0  0  0  0  0
  -13.9189  -23.1361   -0.5886 C   0  0  0  0  0  0
  -14.9483  -22.3014   -1.0533 C   0  0  0  0  0  0
  -14.8963  -20.8000   -0.8068 C   0  0  0  0  0  0
  -14.0930  -20.0091   -1.8237 C   0  0  0  0  0  0
  -14.3079  -18.6360   -2.0131 C   0  0  0  0  0  0
  -13.5937  -17.9284   -2.9730 C   0  0  0  0  0  0
  -12.6937  -18.5907   -3.7959 C   0  0  0  0  0  0
  -12.5244  -19.9755   -3.7091 C   0  0  0  0  0  0
  -11.7362  -20.6968   -4.6497 N   0  0  0  0  0  0
  -12.1164  -21.9261   -5.1689 C   0  0  0  0  0  0
  -12.4222  -22.1155   -6.3387 O   0  0  0  0  0  0
  -12.1380  -22.9361   -4.2187 N   0  0  0  0  0  0
  -12.4923  -24.2510   -4.4484 C   0  0  0  0  0  0
  -12.5107  -25.1679   -3.4681 C   0  0  0  0  0  0
  -12.8749  -26.6196   -3.7192 C   0  0  0  0  0  0
  -11.6129  -27.4986   -3.7994 C   0  0  0  0  0  0
  -11.8965  -29.0070   -3.7509 C   0  0  0  0  0  0
  -10.6747  -29.8013   -3.6445 N   0  0  0  0  0  0
  -10.4081  -30.6509   -2.5978 C   0  0  0  0  0  0
  -11.1771  -30.7835   -1.6462 O   0  0  0  0  0  0
   -9.0261  -31.3450   -2.6597 C   0  0  0  0  0  0
   -8.5884  -31.9421   -1.3111 C   0  0  0  0  0  0
   -9.3282  -33.2308   -0.9330 C   0  0  0  0  0  0
   -9.4276  -34.2643   -2.0538 C   0  0  0  0  0  0
   -8.2157  -35.0066   -2.1314 O   0  0  0  0  0  0
   -9.7602  -33.6491   -3.4221 C   0  0  0  0  0  0
   -8.9030  -32.4265   -3.7394 C   0  0  0  0  0  0
  -13.7210  -26.7344   -4.9933 C   0  0  0  0  0  0
  -14.6159  -27.5754   -5.0700 O   0  0  0  0  0  0
  -13.3694  -25.9476   -6.0604 N   0  0  0  0  0  0
  -12.8205  -24.8059   -5.7992 C   0  0  0  0  0  0
  -13.1901  -20.6709   -2.6856 C   0  0  0  0  0  0
  -16.0602  -22.8853   -1.6809 C   0  0  0  0  0  0
  -16.1525  -24.2746   -1.8197 C   0  0  0  0  0  0
  -17.4422  -26.7830   -0.5883 H   0  0  0  0  0  0
  -16.5961  -28.1683   -0.0720 H   0  0  0  0  0  0
  -10.7544  -20.4630   -4.6971 H   0  0  0  0  0  0
  -11.8660  -22.6922   -3.2779 H   0  0  0  0  0  0
  -10.0622  -29.8055   -4.4559 H   0  0  0  0  0  0
   -7.4790  -34.4008   -2.2949 H   0  0  0  0  0  0
  1  2  1  0  0  0
  1 41  1  0  0  0
  1 42  1  0  0  0
  2  3  2  0  0  0
  2  4  2  0  0  0
  2  5  1  0  0  0
  5  6  2  0  0  0
  5 40  1  0  0  0
  6  7  1  0  0  0
  7  8  2  0  0  0
  8  9  1  0  0  0
  8 39  1  0  0  0
  9 10  1  0  0  0
 10 11  2  0  0  0
 10 38  1  0  0  0
 11 12  1  0  0  0
 12 13  2  0  0  0
 13 14  1  0  0  0
 14 15  1  0  0  0
 14 38  2  0  0  0
 15 16  1  0  0  0
 15 43  1  0  0  0
 16 17  2  0  0  0
 16 18  1  0  0  0
 18 19  1  0  0  0
 18 44  1  0  0  0
 19 20  2  0  0  0
 19 37  1  0  0  0
 20 21  1  0  0  0
 21 22  1  0  0  0
 21 34  1  0  0  0
 22 23  1  0  0  0
 23 24  1  0  0  0
 24 25  1  0  0  0
 24 45  1  0  0  0
 25 26  2  0  0  0
 25 27  1  0  0  0
 27 28  1  0  0  0
 27 33  1  0  0  0
 28 29  1  0  0  0
 29 30  1  0  0  0
 30 31  1  0  0  0
 30 32  1  0  0  0
 31 46  1  0  0  0
 32 33  1  0  0  0
 34 35  2  0  0  0
 34 36  1  0  0  0
 36 37  2  0  0  0
 39 40  2  0  0  0
M  END
>  <AUTHOR>
    GENERATED BY OPEN BABEL 2.3.2

>  <CHROM.1>
178.91983799,109.37683614,84.74804662,158.12662620,-138.53326930,112.48033486
-178.80036244,167.61934956,-172.14945329,119.93996921,162.93426196,-58.76523246
-12.73258425,-26.09005178,-2.86553275,1.99000095,0.63371436,-0.29862142

>  <COMPND>
    UNNAMED

>  <MASTER>
        0    0    0    0    0    0    0    0   73    0   73    0

>  <Name>
ligands/mol5.pdb

>  <RI>
2.48739e+07

>  <Rbt.Current_Directory>
/home/rodrigo/Desktop/Rodrigo/Proyectos/test_OCONDOR/OCONDOR

>  <Rbt.Executable>
rbdock ($Id: //depot/dev/client3/rdock/2013.1/src/exe/rbdock.cxx#4 $)

>  <Rbt.Library>
libRbt.so (2013.1, Build901 2013/11/27)

>  <Rbt.Parameter_File>
dock.prm

>  <Rbt.Receptor>
rdock.prm

>  <SCORE>
-7.82926

>  <SCORE.INTER>
-3.15709

>  <SCORE.INTER.CONST>
1

>  <SCORE.INTER.POLAR>
0

>  <SCORE.INTER.REPUL>
0.110576

>  <SCORE.INTER.ROT>
11

>  <SCORE.INTER.VDW>
-20.11

>  <SCORE.INTER.norm>
-0.0789273

>  <SCORE.INTRA>
-4.67217

>  <SCORE.INTRA.DIHEDRAL>
-1.45906

>  <SCORE.INTRA.DIHEDRAL.0>
8.44371

>  <SCORE.INTRA.POLAR>
0

>  <SCORE.INTRA.POLAR.0>
0

>  <SCORE.INTRA.REPUL>
0

>  <SCORE.INTRA.REPUL.0>
0

>  <SCORE.INTRA.VDW>
-3.94264

>  <SCORE.INTRA.VDW.0>
-2.13059

>  <SCORE.INTRA.norm>
-0.116804

>  <SCORE.RESTR>
0

>  <SCORE.RESTR.CAVITY>
0

>  <SCORE.RESTR.norm>
0

>  <SCORE.SYSTEM>
0

>  <SCORE.SYSTEM.CONST>
0

>  <SCORE.SYSTEM.DIHEDRAL>
0

>  <SCORE.SYSTEM.norm>
0

>  <SCORE.heavy>
40

>  <SCORE.norm>
-0.195732

$$$$
