ligands/mol7.pdb
  rDOCK(R)          3D
libRbt.so/2013.1/901 2013/11/27
 46 49  0  0  0  0  0  0  0  0999 V2000
   -5.5485    5.3665   70.6213 N   0  0  0  0  0  0
   -6.2920    6.5688   69.7190 S   0  0  0  0  0  0
   -5.6770    7.8016   70.0964 O   0  0  0  0  0  0
   -6.2973    6.0866   68.3454 O   0  0  0  0  0  0
   -7.9405    6.5115   70.3440 C   0  0  0  0  0  0
   -8.8862    5.6945   69.7334 C   0  0  0  0  0  0
  -10.1876    5.6831   70.2220 C   0  0  0  0  0  0
  -10.5512    6.4896   71.3116 C   0  0  0  0  0  0
  -11.9618    6.4726   71.8404 C   0  0  0  0  0  0
  -12.6636    7.7972   71.6906 C   0  0  0  0  0  0
  -13.5478    8.2670   72.6636 C   0  0  0  0  0  0
  -14.1049    9.5395   72.5355 C   0  0  0  0  0  0
  -13.7879   10.3431   71.4345 C   0  0  0  0  0  0
  -12.9654    9.8487   70.4245 C   0  0  0  0  0  0
  -12.6863   10.5904   69.2579 N   0  0  0  0  0  0
  -11.3944   11.0314   68.9746 C   0  0  0  0  0  0
  -10.4036   10.3017   68.9593 O   0  0  0  0  0  0
  -11.2890   12.5542   68.7733 C   0  0  0  0  0  0
  -12.2872   12.9209   67.2569 S   0  0  0  0  0  0
  -11.6976   13.3933   69.9837 C   0  0  0  0  0  0
  -12.3199   12.7885   71.0848 C   0  0  0  0  0  0
  -12.7826   13.4334   72.1829 N   0  0  0  0  0  0
  -12.6010   14.7611   72.2260 C   0  0  0  0  0  0
  -11.9586   15.4678   71.2276 C   0  0  0  0  0  0
  -11.4860   14.7894   70.0860 C   0  0  0  0  0  0
  -10.7288   15.6221   69.0725 C   0  0  0  0  0  0
  -11.6340   16.6692   68.4146 C   0  0  0  0  0  0
  -10.8654   17.6262   67.6363 N   0  0  0  0  0  0
  -10.5677   17.4409   66.3055 C   0  0  0  0  0  0
  -10.9604   16.4666   65.6781 O   0  0  0  0  0  0
   -9.6802   18.5258   65.6882 C   0  0  0  0  0  0
  -10.3021   19.9261   65.8290 C   0  0  0  0  0  0
  -10.0307   20.6240   67.1615 C   0  0  0  0  0  0
   -8.5752   20.5752   67.5980 C   0  0  0  0  0  0
   -7.8003   21.4499   66.7877 O   0  0  0  0  0  0
   -7.9983   19.1667   67.5269 C   0  0  0  0  0  0
   -8.2349   18.4529   66.1978 C   0  0  0  0  0  0
  -12.4265    8.5759   70.5505 C   0  0  0  0  0  0
   -9.5891    7.3079   71.9121 C   0  0  0  0  0  0
   -8.2770    7.3252   71.4302 C   0  0  0  0  0  0
   -5.5369    5.6349   71.6055 H   0  0  0  0  0  0
   -4.6338    5.1448   70.2343 H   0  0  0  0  0  0
  -13.2815   10.3948   68.4607 H   0  0  0  0  0  0
  -13.0260   11.7959   67.3128 H   0  0  0  0  0  0
  -10.3783   18.3562   68.1396 H   0  0  0  0  0  0
   -8.0762   22.3606   66.9998 H   0  0  0  0  0  0
  1  2  1  0  0  0
  1 41  1  0  0  0
  1 42  1  0  0  0
  2  3  2  0  0  0
  2  4  2  0  0  0
  2  5  1  0  0  0
  5  6  2  0  0  0
  5 40  1  0  0  0
  6  7  1  0  0  0
  7  8  2  0  0  0
  8  9  1  0  0  0
  8 39  1  0  0  0
  9 10  1  0  0  0
 10 11  2  0  0  0
 10 38  1  0  0  0
 11 12  1  0  0  0
 12 13  2  0  0  0
 13 14  1  0  0  0
 14 15  1  0  0  0
 14 38  2  0  0  0
 15 16  1  0  0  0
 15 43  1  0  0  0
 16 17  2  0  0  0
 16 18  1  0  0  0
 18 19  1  0  0  0
 18 20  1  0  0  0
 19 44  1  0  0  0
 20 21  2  0  0  0
 20 25  1  0  0  0
 21 22  1  0  0  0
 22 23  2  0  0  0
 23 24  1  0  0  0
 24 25  2  0  0  0
 25 26  1  0  0  0
 26 27  1  0  0  0
 27 28  1  0  0  0
 28 29  1  0  0  0
 28 45  1  0  0  0
 29 30  2  0  0  0
 29 31  1  0  0  0
 31 32  1  0  0  0
 31 37  1  0  0  0
 32 33  1  0  0  0
 33 34  1  0  0  0
 34 35  1  0  0  0
 34 36  1  0  0  0
 35 46  1  0  0  0
 36 37  1  0  0  0
 39 40  2  0  0  0
M  END
>  <AUTHOR>
    GENERATED BY OPEN BABEL 2.3.2

>  <CHROM.1>
49.79438658,-91.11406853,-116.19069682,-143.31869847,115.09571829,52.34167358
-64.66116144,21.20000325,-9.85007982,116.84077218,169.22612883,89.68615364
-57.27210898,67.85694117,-10.31240477,12.16581768,69.33969081,-1.50716842
0.38993682,-0.30875098

>  <COMPND>
    UNNAMED

>  <MASTER>
        0    0    0    0    0    0    0    0   74    0   74    0

>  <Name>
ligands/mol7.pdb

>  <RI>
3.51511e+07

>  <Rbt.Current_Directory>
/home/rodrigo/Desktop/Rodrigo/Proyectos/test_OCONDOR/OCONDOR

>  <Rbt.Executable>
rbdock ($Id: //depot/dev/client3/rdock/2013.1/src/exe/rbdock.cxx#4 $)

>  <Rbt.Library>
libRbt.so (2013.1, Build901 2013/11/27)

>  <Rbt.Parameter_File>
dock.prm

>  <Rbt.Receptor>
rdock.prm

>  <SCORE>
-15.918

>  <SCORE.INTER>
-17.0936

>  <SCORE.INTER.CONST>
1

>  <SCORE.INTER.POLAR>
-2.87055

>  <SCORE.INTER.REPUL>
0

>  <SCORE.INTER.ROT>
13

>  <SCORE.INTER.VDW>
-25.7337

>  <SCORE.INTER.norm>
-0.42734

>  <SCORE.INTRA>
1.17554

>  <SCORE.INTRA.DIHEDRAL>
-0.820472

>  <SCORE.INTRA.DIHEDRAL.0>
11.1439

>  <SCORE.INTRA.POLAR>
-0.174738

>  <SCORE.INTRA.POLAR.0>
0

>  <SCORE.INTRA.REPUL>
0

>  <SCORE.INTRA.REPUL.0>
0

>  <SCORE.INTRA.VDW>
2.17988

>  <SCORE.INTRA.VDW.0>
-6.16825

>  <SCORE.INTRA.norm>
0.0293884

>  <SCORE.RESTR>
0

>  <SCORE.RESTR.CAVITY>
0

>  <SCORE.RESTR.norm>
0

>  <SCORE.SYSTEM>
0

>  <SCORE.SYSTEM.CONST>
0

>  <SCORE.SYSTEM.DIHEDRAL>
0

>  <SCORE.SYSTEM.norm>
0

>  <SCORE.heavy>
40

>  <SCORE.norm>
-0.397951

$$$$
ligands/mol7.pdb
  rDOCK(R)          3D
libRbt.so/2013.1/901 2013/11/27
 46 49  0  0  0  0  0  0  0  0999 V2000
   -7.8982   10.1081   76.9832 N   0  0  0  0  0  0
   -6.8960    9.0707   76.1276 S   0  0  0  0  0  0
   -6.2597    9.8574   75.1192 O   0  0  0  0  0  0
   -6.1448    8.3296   77.1304 O   0  0  0  0  0  0
   -8.0673    7.9831   75.3814 C   0  0  0  0  0  0
   -8.8147    7.1185   76.1742 C   0  0  0  0  0  0
   -9.7129    6.2487   75.5668 C   0  0  0  0  0  0
   -9.8623    6.2322   74.1713 C   0  0  0  0  0  0
  -10.8388    5.2902   73.5165 C   0  0  0  0  0  0
  -10.6302    5.1645   72.0298 C   0  0  0  0  0  0
   -9.8191    4.1643   71.4902 C   0  0  0  0  0  0
   -9.7262    4.0210   70.1057 C   0  0  0  0  0  0
  -10.4350    4.8781   69.2565 C   0  0  0  0  0  0
  -11.1854    5.9239   69.7897 C   0  0  0  0  0  0
  -11.8479    6.8617   68.9708 N   0  0  0  0  0  0
  -11.3130    7.2543   67.7446 C   0  0  0  0  0  0
  -11.4664    6.6327   66.6936 O   0  0  0  0  0  0
  -10.4154    8.5022   67.8305 C   0  0  0  0  0  0
   -8.6859    7.8559   67.9772 S   0  0  0  0  0  0
  -10.5922    9.5022   66.6882 C   0  0  0  0  0  0
  -10.1084    9.2035   65.4067 C   0  0  0  0  0  0
  -10.1489   10.0311   64.3346 N   0  0  0  0  0  0
  -10.7286   11.2265   64.5150 C   0  0  0  0  0  0
  -11.2871   11.6211   65.7155 C   0  0  0  0  0  0
  -11.2347   10.7561   66.8270 C   0  0  0  0  0  0
  -11.9334   11.2311   68.0841 C   0  0  0  0  0  0
  -10.9314   11.5526   69.1983 C   0  0  0  0  0  0
   -9.8815   12.4427   68.7316 N   0  0  0  0  0  0
   -9.9810   13.8139   68.7933 C   0  0  0  0  0  0
  -10.9536   14.3768   69.2774 O   0  0  0  0  0  0
   -8.8017   14.5723   68.1772 C   0  0  0  0  0  0
   -8.7381   14.3939   66.6502 C   0  0  0  0  0  0
   -9.6224   15.3496   65.8495 C   0  0  0  0  0  0
   -9.5092   16.8028   66.2817 C   0  0  0  0  0  0
   -8.2596   17.3344   65.8598 O   0  0  0  0  0  0
   -9.6529   16.9692   67.7896 C   0  0  0  0  0  0
   -8.7640   16.0421   68.6155 C   0  0  0  0  0  0
  -11.2616    6.0704   71.1678 C   0  0  0  0  0  0
   -9.1009    7.1056   73.3883 C   0  0  0  0  0  0
   -8.1965    7.9860   73.9892 C   0  0  0  0  0  0
   -8.8646    9.9737   76.6850 H   0  0  0  0  0  0
   -7.5643   11.0667   76.9103 H   0  0  0  0  0  0
  -12.8588    6.8741   69.0471 H   0  0  0  0  0  0
   -8.8301    7.3830   69.2303 H   0  0  0  0  0  0
   -9.1390   12.0402   68.1747 H   0  0  0  0  0  0
   -8.2459   17.3019   64.8854 H   0  0  0  0  0  0
  1  2  1  0  0  0
  1 41  1  0  0  0
  1 42  1  0  0  0
  2  3  2  0  0  0
  2  4  2  0  0  0
  2  5  1  0  0  0
  5  6  2  0  0  0
  5 40  1  0  0  0
  6  7  1  0  0  0
  7  8  2  0  0  0
  8  9  1  0  0  0
  8 39  1  0  0  0
  9 10  1  0  0  0
 10 11  2  0  0  0
 10 38  1  0  0  0
 11 12  1  0  0  0
 12 13  2  0  0  0
 13 14  1  0  0  0
 14 15  1  0  0  0
 14 38  2  0  0  0
 15 16  1  0  0  0
 15 43  1  0  0  0
 16 17  2  0  0  0
 16 18  1  0  0  0
 18 19  1  0  0  0
 18 20  1  0  0  0
 19 44  1  0  0  0
 20 21  2  0  0  0
 20 25  1  0  0  0
 21 22  1  0  0  0
 22 23  2  0  0  0
 23 24  1  0  0  0
 24 25  2  0  0  0
 25 26  1  0  0  0
 26 27  1  0  0  0
 27 28  1  0  0  0
 28 29  1  0  0  0
 28 45  1  0  0  0
 29 30  2  0  0  0
 29 31  1  0  0  0
 31 32  1  0  0  0
 31 37  1  0  0  0
 32 33  1  0  0  0
 33 34  1  0  0  0
 34 35  1  0  0  0
 34 36  1  0  0  0
 35 46  1  0  0  0
 36 37  1  0  0  0
 39 40  2  0  0  0
M  END
>  <AUTHOR>
    GENERATED BY OPEN BABEL 2.3.2

>  <CHROM.1>
102.30203267,-67.32190735,-165.86584925,92.56931379,-33.32273721,84.16819411
95.40413449,-70.47687080,-72.57099561,71.03586661,51.14261185,89.60426285
67.67798253,62.48249416,-9.57801233,9.77314850,70.08349474,-1.27471479,-1.17975015
-0.57543729

>  <COMPND>
    UNNAMED

>  <MASTER>
        0    0    0    0    0    0    0    0   74    0   74    0

>  <Name>
ligands/mol7.pdb

>  <RI>
3.51511e+07

>  <Rbt.Current_Directory>
/home/rodrigo/Desktop/Rodrigo/Proyectos/test_OCONDOR/OCONDOR

>  <Rbt.Executable>
rbdock ($Id: //depot/dev/client3/rdock/2013.1/src/exe/rbdock.cxx#4 $)

>  <Rbt.Library>
libRbt.so (2013.1, Build901 2013/11/27)

>  <Rbt.Parameter_File>
dock.prm

>  <Rbt.Receptor>
rdock.prm

>  <SCORE>
-15.3233

>  <SCORE.INTER>
-14.4057

>  <SCORE.INTER.CONST>
1

>  <SCORE.INTER.POLAR>
-2.09842

>  <SCORE.INTER.REPUL>
0

>  <SCORE.INTER.ROT>
13

>  <SCORE.INTER.VDW>
-25.6711

>  <SCORE.INTER.norm>
-0.360143

>  <SCORE.INTRA>
-0.917552

>  <SCORE.INTRA.DIHEDRAL>
-0.718445

>  <SCORE.INTRA.DIHEDRAL.0>
11.1439

>  <SCORE.INTRA.POLAR>
0

>  <SCORE.INTRA.POLAR.0>
0

>  <SCORE.INTRA.REPUL>
0

>  <SCORE.INTRA.REPUL.0>
0

>  <SCORE.INTRA.VDW>
-0.558329

>  <SCORE.INTRA.VDW.0>
-6.16825

>  <SCORE.INTRA.norm>
-0.0229388

>  <SCORE.RESTR>
0

>  <SCORE.RESTR.CAVITY>
0

>  <SCORE.RESTR.norm>
0

>  <SCORE.SYSTEM>
0

>  <SCORE.SYSTEM.CONST>
0

>  <SCORE.SYSTEM.DIHEDRAL>
0

>  <SCORE.SYSTEM.norm>
0

>  <SCORE.heavy>
40

>  <SCORE.norm>
-0.383082

$$$$
ligands/mol7.pdb
  rDOCK(R)          3D
libRbt.so/2013.1/901 2013/11/27
 46 49  0  0  0  0  0  0  0  0999 V2000
   -4.2328    8.4443   76.2736 N   0  0  0  0  0  0
   -5.2138    7.3089   77.0227 S   0  0  0  0  0  0
   -4.5985    6.0367   76.8139 O   0  0  0  0  0  0
   -5.4860    7.8365   78.3519 O   0  0  0  0  0  0
   -6.6861    7.4221   76.0577 C   0  0  0  0  0  0
   -7.3944    6.2695   75.7346 C   0  0  0  0  0  0
   -8.5370    6.3746   74.9498 C   0  0  0  0  0  0
   -8.9708    7.6237   74.4792 C   0  0  0  0  0  0
  -10.2111    7.7344   73.6313 C   0  0  0  0  0  0
   -9.9876    8.5072   72.3575 C   0  0  0  0  0  0
   -8.7017    8.7707   71.8818 C   0  0  0  0  0  0
   -8.5363    9.4060   70.6509 C   0  0  0  0  0  0
   -9.6512    9.7862   69.8954 C   0  0  0  0  0  0
  -10.9348    9.5926   70.4011 C   0  0  0  0  0  0
  -12.0837   10.0350   69.7132 N   0  0  0  0  0  0
  -12.0105   11.0584   68.7692 C   0  0  0  0  0  0
  -12.2571   10.9127   67.5725 O   0  0  0  0  0  0
  -11.4919   12.3915   69.3388 C   0  0  0  0  0  0
  -11.6247   13.6067   67.9473 S   0  0  0  0  0  0
  -12.1862   12.8587   70.6178 C   0  0  0  0  0  0
  -13.1355   12.0400   71.2455 C   0  0  0  0  0  0
  -13.8599   12.3688   72.3423 N   0  0  0  0  0  0
  -13.6229   13.5714   72.8855 C   0  0  0  0  0  0
  -12.6784   14.4501   72.3908 C   0  0  0  0  0  0
  -11.9339   14.1022   71.2457 C   0  0  0  0  0  0
  -10.8681   15.0863   70.8102 C   0  0  0  0  0  0
  -11.4264   16.1244   69.8307 C   0  0  0  0  0  0
  -10.3886   16.6468   68.9575 N   0  0  0  0  0  0
  -10.6380   17.5712   67.9690 C   0  0  0  0  0  0
  -11.7522   18.0404   67.7800 O   0  0  0  0  0  0
   -9.4252   17.9336   67.1068 C   0  0  0  0  0  0
   -9.8007   18.8851   65.9574 C   0  0  0  0  0  0
   -9.8348   20.3673   66.3290 C   0  0  0  0  0  0
   -8.6185   20.8349   67.1123 C   0  0  0  0  0  0
   -7.4886   20.9020   66.2515 O   0  0  0  0  0  0
   -8.3081   19.9243   68.2939 C   0  0  0  0  0  0
   -8.2453   18.4384   67.9476 C   0  0  0  0  0  0
  -11.0923    8.9737   71.6335 C   0  0  0  0  0  0
   -8.2453    8.7725   74.8103 C   0  0  0  0  0  0
   -7.0963    8.6783   75.6009 C   0  0  0  0  0  0
   -3.2989    8.4131   76.6830 H   0  0  0  0  0  0
   -4.6711    9.3625   76.2938 H   0  0  0  0  0  0
  -12.8036    9.3363   69.5666 H   0  0  0  0  0  0
  -10.9114   12.8761   67.0686 H   0  0  0  0  0  0
   -9.4941   16.1741   68.9575 H   0  0  0  0  0  0
   -7.6893   21.5615   65.5620 H   0  0  0  0  0  0
  1  2  1  0  0  0
  1 41  1  0  0  0
  1 42  1  0  0  0
  2  3  2  0  0  0
  2  4  2  0  0  0
  2  5  1  0  0  0
  5  6  2  0  0  0
  5 40  1  0  0  0
  6  7  1  0  0  0
  7  8  2  0  0  0
  8  9  1  0  0  0
  8 39  1  0  0  0
  9 10  1  0  0  0
 10 11  2  0  0  0
 10 38  1  0  0  0
 11 12  1  0  0  0
 12 13  2  0  0  0
 13 14  1  0  0  0
 14 15  1  0  0  0
 14 38  2  0  0  0
 15 16  1  0  0  0
 15 43  1  0  0  0
 16 17  2  0  0  0
 16 18  1  0  0  0
 18 19  1  0  0  0
 18 20  1  0  0  0
 19 44  1  0  0  0
 20 21  2  0  0  0
 20 25  1  0  0  0
 21 22  1  0  0  0
 22 23  2  0  0  0
 23 24  1  0  0  0
 24 25  2  0  0  0
 25 26  1  0  0  0
 26 27  1  0  0  0
 27 28  1  0  0  0
 28 29  1  0  0  0
 28 45  1  0  0  0
 29 30  2  0  0  0
 29 31  1  0  0  0
 31 32  1  0  0  0
 31 37  1  0  0  0
 32 33  1  0  0  0
 33 34  1  0  0  0
 34 35  1  0  0  0
 34 36  1  0  0  0
 35 46  1  0  0  0
 36 37  1  0  0  0
 39 40  2  0  0  0
M  END
>  <AUTHOR>
    GENERATED BY OPEN BABEL 2.3.2

>  <CHROM.1>
-59.46147253,140.50122902,-128.67325598,15.45102885,-22.44819350,115.96163745
-175.30179399,-54.43171333,5.19031109,92.81691262,-153.44739601,178.52440244
175.55030578,62.05259984,-9.58723721,12.34670528,71.27732086,-1.29824170
-0.48432138,-0.52090715

>  <COMPND>
    UNNAMED

>  <MASTER>
        0    0    0    0    0    0    0    0   74    0   74    0

>  <Name>
ligands/mol7.pdb

>  <RI>
3.51511e+07

>  <Rbt.Current_Directory>
/home/rodrigo/Desktop/Rodrigo/Proyectos/test_OCONDOR/OCONDOR

>  <Rbt.Executable>
rbdock ($Id: //depot/dev/client3/rdock/2013.1/src/exe/rbdock.cxx#4 $)

>  <Rbt.Library>
libRbt.so (2013.1, Build901 2013/11/27)

>  <Rbt.Parameter_File>
dock.prm

>  <Rbt.Receptor>
rdock.prm

>  <SCORE>
-11.0005

>  <SCORE.INTER>
-14.3834

>  <SCORE.INTER.CONST>
1

>  <SCORE.INTER.POLAR>
-1.55107

>  <SCORE.INTER.REPUL>
0.00325627

>  <SCORE.INTER.ROT>
13

>  <SCORE.INTER.VDW>
-27.5261

>  <SCORE.INTER.norm>
-0.359586

>  <SCORE.INTRA>
3.38296

>  <SCORE.INTRA.DIHEDRAL>
-0.829406

>  <SCORE.INTRA.DIHEDRAL.0>
11.1439

>  <SCORE.INTRA.POLAR>
0

>  <SCORE.INTRA.POLAR.0>
0

>  <SCORE.INTRA.REPUL>
0

>  <SCORE.INTRA.REPUL.0>
0

>  <SCORE.INTRA.VDW>
3.79767

>  <SCORE.INTRA.VDW.0>
-6.16825

>  <SCORE.INTRA.norm>
0.0845741

>  <SCORE.RESTR>
0

>  <SCORE.RESTR.CAVITY>
0

>  <SCORE.RESTR.norm>
0

>  <SCORE.SYSTEM>
0

>  <SCORE.SYSTEM.CONST>
0

>  <SCORE.SYSTEM.DIHEDRAL>
0

>  <SCORE.SYSTEM.norm>
0

>  <SCORE.heavy>
40

>  <SCORE.norm>
-0.275012

$$$$
ligands/mol7.pdb
  rDOCK(R)          3D
libRbt.so/2013.1/901 2013/11/27
 46 49  0  0  0  0  0  0  0  0999 V2000
   -8.0345   18.2635   65.8788 N   0  0  0  0  0  0
   -7.4526   17.1076   66.9455 S   0  0  0  0  0  0
   -6.5121   16.3168   66.2170 O   0  0  0  0  0  0
   -7.0930   17.8317   68.1561 O   0  0  0  0  0  0
   -8.9049   16.1588   67.2652 C   0  0  0  0  0  0
   -9.5264   15.4704   66.2286 C   0  0  0  0  0  0
  -10.6858   14.7506   66.4932 C   0  0  0  0  0  0
  -11.2322   14.7217   67.7857 C   0  0  0  0  0  0
  -12.4872   13.9381   68.0695 C   0  0  0  0  0  0
  -12.6865   13.6548   69.5357 C   0  0  0  0  0  0
  -13.2016   14.6220   70.4009 C   0  0  0  0  0  0
  -13.4607   14.2923   71.7314 C   0  0  0  0  0  0
  -13.2003   13.0011   72.2040 C   0  0  0  0  0  0
  -12.6165   12.0557   71.3635 C   0  0  0  0  0  0
  -12.2599   10.7695   71.8191 N   0  0  0  0  0  0
  -13.2046    9.7482   71.9099 C   0  0  0  0  0  0
  -14.4119    9.9067   71.7322 O   0  0  0  0  0  0
  -12.6160    8.3968   72.3547 C   0  0  0  0  0  0
  -13.9679    7.1590   72.0879 S   0  0  0  0  0  0
  -11.3017    8.0123   71.6759 C   0  0  0  0  0  0
  -11.1424    8.1886   70.2942 C   0  0  0  0  0  0
  -10.0534    7.8290   69.5727 N   0  0  0  0  0  0
   -9.0326    7.2836   70.2495 C   0  0  0  0  0  0
   -9.0464    7.1016   71.6190 C   0  0  0  0  0  0
  -10.1861    7.4731   72.3606 C   0  0  0  0  0  0
  -10.0945    7.3102   73.8636 C   0  0  0  0  0  0
  -10.5619    5.9204   74.3092 C   0  0  0  0  0  0
  -10.1319    5.6216   75.6650 N   0  0  0  0  0  0
   -8.8167    5.3928   75.9994 C   0  0  0  0  0  0
   -7.9131    5.4574   75.1768 O   0  0  0  0  0  0
   -8.5822    5.0163   77.4653 C   0  0  0  0  0  0
   -8.9601    6.1619   78.4205 C   0  0  0  0  0  0
  -10.4405    6.2310   78.7947 C   0  0  0  0  0  0
  -11.0352    4.8942   79.2078 C   0  0  0  0  0  0
  -10.5520    4.5296   80.4945 O   0  0  0  0  0  0
  -10.7169    3.7878   78.2095 C   0  0  0  0  0  0
   -9.2406    3.6806   77.8341 C   0  0  0  0  0  0
  -12.3471   12.3947   70.0448 C   0  0  0  0  0  0
  -10.5969   15.4219   68.8161 C   0  0  0  0  0  0
   -9.4292   16.1470   68.5614 C   0  0  0  0  0  0
   -8.2342   17.8283   64.9779 H   0  0  0  0  0  0
   -7.3988   19.0569   65.8316 H   0  0  0  0  0  0
  -11.3052   10.4859   71.6292 H   0  0  0  0  0  0
  -14.2701    7.0140   73.3926 H   0  0  0  0  0  0
  -10.8463    5.3914   76.3433 H   0  0  0  0  0  0
  -10.8172    5.2349   81.1133 H   0  0  0  0  0  0
  1  2  1  0  0  0
  1 41  1  0  0  0
  1 42  1  0  0  0
  2  3  2  0  0  0
  2  4  2  0  0  0
  2  5  1  0  0  0
  5  6  2  0  0  0
  5 40  1  0  0  0
  6  7  1  0  0  0
  7  8  2  0  0  0
  8  9  1  0  0  0
  8 39  1  0  0  0
  9 10  1  0  0  0
 10 11  2  0  0  0
 10 38  1  0  0  0
 11 12  1  0  0  0
 12 13  2  0  0  0
 13 14  1  0  0  0
 14 15  1  0  0  0
 14 38  2  0  0  0
 15 16  1  0  0  0
 15 43  1  0  0  0
 16 17  2  0  0  0
 16 18  1  0  0  0
 18 19  1  0  0  0
 18 20  1  0  0  0
 19 44  1  0  0  0
 20 21  2  0  0  0
 20 25  1  0  0  0
 21 22  1  0  0  0
 22 23  2  0  0  0
 23 24  1  0  0  0
 24 25  2  0  0  0
 25 26  1  0  0  0
 26 27  1  0  0  0
 27 28  1  0  0  0
 28 29  1  0  0  0
 28 45  1  0  0  0
 29 30  2  0  0  0
 29 31  1  0  0  0
 31 32  1  0  0  0
 31 37  1  0  0  0
 32 33  1  0  0  0
 33 34  1  0  0  0
 34 35  1  0  0  0
 34 36  1  0  0  0
 35 46  1  0  0  0
 36 37  1  0  0  0
 39 40  2  0  0  0
M  END
>  <AUTHOR>
    GENERATED BY OPEN BABEL 2.3.2

>  <CHROM.1>
43.63059315,62.81602137,161.76272408,79.70582425,82.04125728,-7.15892876
-169.50635814,-105.90537301,-43.97388241,92.75260595,163.81505577,-69.78980939
-64.34568404,59.40118665,-10.55333433,10.38932077,71.82738325,-1.50241112
0.13726479,2.41922889

>  <COMPND>
    UNNAMED

>  <MASTER>
        0    0    0    0    0    0    0    0   74    0   74    0

>  <Name>
ligands/mol7.pdb

>  <RI>
3.51511e+07

>  <Rbt.Current_Directory>
/home/rodrigo/Desktop/Rodrigo/Proyectos/test_OCONDOR/OCONDOR

>  <Rbt.Executable>
rbdock ($Id: //depot/dev/client3/rdock/2013.1/src/exe/rbdock.cxx#4 $)

>  <Rbt.Library>
libRbt.so (2013.1, Build901 2013/11/27)

>  <Rbt.Parameter_File>
dock.prm

>  <Rbt.Receptor>
rdock.prm

>  <SCORE>
-11.9603

>  <SCORE.INTER>
-14.209

>  <SCORE.INTER.CONST>
1

>  <SCORE.INTER.POLAR>
-1.79792

>  <SCORE.INTER.REPUL>
0

>  <SCORE.INTER.ROT>
13

>  <SCORE.INTER.VDW>
-26.4961

>  <SCORE.INTER.norm>
-0.355225

>  <SCORE.INTRA>
2.24869

>  <SCORE.INTRA.DIHEDRAL>
0.166605

>  <SCORE.INTRA.DIHEDRAL.0>
11.1439

>  <SCORE.INTRA.POLAR>
0

>  <SCORE.INTRA.POLAR.0>
0

>  <SCORE.INTRA.REPUL>
0

>  <SCORE.INTRA.REPUL.0>
0

>  <SCORE.INTRA.VDW>
2.16539

>  <SCORE.INTRA.VDW.0>
-6.16825

>  <SCORE.INTRA.norm>
0.0562173

>  <SCORE.RESTR>
0

>  <SCORE.RESTR.CAVITY>
0

>  <SCORE.RESTR.norm>
0

>  <SCORE.SYSTEM>
0

>  <SCORE.SYSTEM.CONST>
0

>  <SCORE.SYSTEM.DIHEDRAL>
0

>  <SCORE.SYSTEM.norm>
0

>  <SCORE.heavy>
40

>  <SCORE.norm>
-0.299008

$$$$
ligands/mol7.pdb
  rDOCK(R)          3D
libRbt.so/2013.1/901 2013/11/27
 46 49  0  0  0  0  0  0  0  0999 V2000
  -10.9571   19.4791   68.3643 N   0  0  0  0  0  0
   -9.7101   18.4266   67.9770 S   0  0  0  0  0  0
   -8.9194   19.0792   66.9823 O   0  0  0  0  0  0
   -9.1568   17.9838   69.2486 O   0  0  0  0  0  0
  -10.5935   17.0852   67.2476 C   0  0  0  0  0  0
  -11.3200   16.2137   68.0521 C   0  0  0  0  0  0
  -11.9872   15.1457   67.4633 C   0  0  0  0  0  0
  -11.9255   14.9390   66.0764 C   0  0  0  0  0  0
  -12.6522   13.7823   65.4412 C   0  0  0  0  0  0
  -11.9088   12.4780   65.5675 C   0  0  0  0  0  0
  -11.0830   12.0084   64.5444 C   0  0  0  0  0  0
  -10.3374   10.8451   64.7362 C   0  0  0  0  0  0
  -10.4188   10.1437   65.9444 C   0  0  0  0  0  0
  -11.2981   10.5675   66.9386 C   0  0  0  0  0  0
  -11.4748    9.8459   68.1373 N   0  0  0  0  0  0
  -10.6970   10.1143   69.2628 C   0  0  0  0  0  0
   -9.4664   10.1102   69.2687 O   0  0  0  0  0  0
  -11.5180   10.3258   70.5480 C   0  0  0  0  0  0
  -12.1312   12.0713   70.4593 S   0  0  0  0  0  0
  -12.6321    9.3044   70.7755 C   0  0  0  0  0  0
  -13.9700    9.7195   70.8321 C   0  0  0  0  0  0
  -15.0341    8.9213   71.0899 N   0  0  0  0  0  0
  -14.7812    7.6182   71.2784 C   0  0  0  0  0  0
  -13.5126    7.0765   71.1998 C   0  0  0  0  0  0
  -12.4108    7.9155   70.9373 C   0  0  0  0  0  0
  -11.0651    7.2355   70.7937 C   0  0  0  0  0  0
  -10.9695    6.4466   69.4833 C   0  0  0  0  0  0
   -9.7142    5.7203   69.3877 N   0  0  0  0  0  0
   -9.5301    4.4698   69.9320 C   0  0  0  0  0  0
  -10.4274    3.8703   70.5088 O   0  0  0  0  0  0
   -8.1116    3.9099   69.7914 C   0  0  0  0  0  0
   -7.6915    3.7719   68.3176 C   0  0  0  0  0  0
   -7.1288    5.0436   67.6831 C   0  0  0  0  0  0
   -6.0835    5.7469   68.5340 C   0  0  0  0  0  0
   -4.8726    5.0015   68.5223 O   0  0  0  0  0  0
   -6.5481    5.9454   69.9716 C   0  0  0  0  0  0
   -7.0947    4.6854   70.6390 C   0  0  0  0  0  0
  -12.0485   11.7173   66.7355 C   0  0  0  0  0  0
  -11.1879   15.8226   65.2821 C   0  0  0  0  0  0
  -10.5152   16.9011   65.8638 C   0  0  0  0  0  0
  -11.3806   19.1973   69.2486 H   0  0  0  0  0  0
  -11.6121   19.5560   67.5892 H   0  0  0  0  0  0
  -12.4132    9.5025   68.3085 H   0  0  0  0  0  0
  -10.9221   12.6419   70.6238 H   0  0  0  0  0  0
   -8.8994    6.2317   69.0743 H   0  0  0  0  0  0
   -4.5432    4.9998   67.6046 H   0  0  0  0  0  0
  1  2  1  0  0  0
  1 41  1  0  0  0
  1 42  1  0  0  0
  2  3  2  0  0  0
  2  4  2  0  0  0
  2  5  1  0  0  0
  5  6  2  0  0  0
  5 40  1  0  0  0
  6  7  1  0  0  0
  7  8  2  0  0  0
  8  9  1  0  0  0
  8 39  1  0  0  0
  9 10  1  0  0  0
 10 11  2  0  0  0
 10 38  1  0  0  0
 11 12  1  0  0  0
 12 13  2  0  0  0
 13 14  1  0  0  0
 14 15  1  0  0  0
 14 38  2  0  0  0
 15 16  1  0  0  0
 15 43  1  0  0  0
 16 17  2  0  0  0
 16 18  1  0  0  0
 18 19  1  0  0  0
 18 20  1  0  0  0
 19 44  1  0  0  0
 20 21  2  0  0  0
 20 25  1  0  0  0
 21 22  1  0  0  0
 22 23  2  0  0  0
 23 24  1  0  0  0
 24 25  2  0  0  0
 25 26  1  0  0  0
 26 27  1  0  0  0
 27 28  1  0  0  0
 28 29  1  0  0  0
 28 45  1  0  0  0
 29 30  2  0  0  0
 29 31  1  0  0  0
 31 32  1  0  0  0
 31 37  1  0  0  0
 32 33  1  0  0  0
 33 34  1  0  0  0
 34 35  1  0  0  0
 34 36  1  0  0  0
 35 46  1  0  0  0
 36 37  1  0  0  0
 39 40  2  0  0  0
M  END
>  <AUTHOR>
    GENERATED BY OPEN BABEL 2.3.2

>  <CHROM.1>
-163.08568929,-74.37572628,-80.35857790,-95.68800548,90.64642419,-54.62093279
-80.27644684,-68.98096270,-118.27007462,-105.77877928,-176.08803765,85.45391931
-60.25942792,63.88353726,-10.51573038,10.74053111,68.56790629,1.72066183
0.43854642,-0.26691776

>  <COMPND>
    UNNAMED

>  <MASTER>
        0    0    0    0    0    0    0    0   74    0   74    0

>  <Name>
ligands/mol7.pdb

>  <RI>
3.51511e+07

>  <Rbt.Current_Directory>
/home/rodrigo/Desktop/Rodrigo/Proyectos/test_OCONDOR/OCONDOR

>  <Rbt.Executable>
rbdock ($Id: //depot/dev/client3/rdock/2013.1/src/exe/rbdock.cxx#4 $)

>  <Rbt.Library>
libRbt.so (2013.1, Build901 2013/11/27)

>  <Rbt.Parameter_File>
dock.prm

>  <Rbt.Receptor>
rdock.prm

>  <SCORE>
-15.4274

>  <SCORE.INTER>
-13.9882

>  <SCORE.INTER.CONST>
1

>  <SCORE.INTER.POLAR>
-2.05255

>  <SCORE.INTER.REPUL>
0.0388349

>  <SCORE.INTER.ROT>
13

>  <SCORE.INTER.VDW>
-25.6037

>  <SCORE.INTER.norm>
-0.349705

>  <SCORE.INTRA>
-1.462

>  <SCORE.INTRA.DIHEDRAL>
-2.6209

>  <SCORE.INTRA.DIHEDRAL.0>
11.1439

>  <SCORE.INTRA.POLAR>
0

>  <SCORE.INTRA.POLAR.0>
0

>  <SCORE.INTRA.REPUL>
0

>  <SCORE.INTRA.REPUL.0>
0

>  <SCORE.INTRA.VDW>
-0.151552

>  <SCORE.INTRA.VDW.0>
-6.16825

>  <SCORE.INTRA.norm>
-0.03655

>  <SCORE.RESTR>
0.0228414

>  <SCORE.RESTR.CAVITY>
0.0228414

>  <SCORE.RESTR.norm>
0.000571035

>  <SCORE.SYSTEM>
0

>  <SCORE.SYSTEM.CONST>
0

>  <SCORE.SYSTEM.DIHEDRAL>
0

>  <SCORE.SYSTEM.norm>
0

>  <SCORE.heavy>
40

>  <SCORE.norm>
-0.385684

$$$$
ligands/mol7.pdb
  rDOCK(R)          3D
libRbt.so/2013.1/901 2013/11/27
 46 49  0  0  0  0  0  0  0  0999 V2000
   -8.5675    5.1008   74.9587 N   0  0  0  0  0  0
  -10.2037    5.4193   75.1430 S   0  0  0  0  0  0
  -10.8681    4.1547   75.1430 O   0  0  0  0  0  0
  -10.3021    6.3536   76.2551 O   0  0  0  0  0  0
  -10.5668    6.2811   73.6474 C   0  0  0  0  0  0
  -10.3010    5.6834   72.4199 C   0  0  0  0  0  0
  -10.5674    6.3883   71.2518 C   0  0  0  0  0  0
  -11.0898    7.6899   71.3035 C   0  0  0  0  0  0
  -11.3801    8.4499   70.0354 C   0  0  0  0  0  0
  -11.0874    7.6534   68.7906 C   0  0  0  0  0  0
  -11.7006    6.4218   68.5531 C   0  0  0  0  0  0
  -11.4772    5.7592   67.3460 C   0  0  0  0  0  0
  -10.6368    6.3185   66.3769 C   0  0  0  0  0  0
   -9.9646    7.5099   66.6408 C   0  0  0  0  0  0
   -9.0446    8.0669   65.7285 N   0  0  0  0  0  0
   -9.4104    9.1131   64.8826 C   0  0  0  0  0  0
   -9.3952    9.0451   63.6540 O   0  0  0  0  0  0
   -9.7496   10.4197   65.6230 C   0  0  0  0  0  0
   -8.1662   11.3789   65.6802 S   0  0  0  0  0  0
  -10.9151   11.2115   65.0305 C   0  0  0  0  0  0
  -11.0263   11.3723   63.6423 C   0  0  0  0  0  0
  -11.9741   12.1015   63.0053 N   0  0  0  0  0  0
  -12.8988   12.6947   63.7739 C   0  0  0  0  0  0
  -12.9278   12.5728   65.1498 C   0  0  0  0  0  0
  -11.9341   11.8173   65.8043 C   0  0  0  0  0  0
  -12.0778   11.6712   67.3050 C   0  0  0  0  0  0
  -11.2203   12.6961   68.0554 C   0  0  0  0  0  0
  -11.4868   14.0505   67.6005 N   0  0  0  0  0  0
  -10.5804   14.7871   66.8727 C   0  0  0  0  0  0
   -9.4957   14.3352   66.5317 O   0  0  0  0  0  0
  -11.0206   16.2202   66.5593 C   0  0  0  0  0  0
  -11.0850   17.0917   67.8258 C   0  0  0  0  0  0
   -9.7557   17.7153   68.2506 C   0  0  0  0  0  0
   -8.9937   18.3772   67.1136 C   0  0  0  0  0  0
   -9.6388   19.5892   66.7434 O   0  0  0  0  0  0
   -8.8717   17.4699   65.8955 C   0  0  0  0  0  0
  -10.1890   16.8501   65.4344 C   0  0  0  0  0  0
  -10.1795    8.1565   67.8500 C   0  0  0  0  0  0
  -11.3483    8.2778   72.5457 C   0  0  0  0  0  0
  -11.0863    7.5769   73.7265 C   0  0  0  0  0  0
   -8.0506    5.9793   74.9157 H   0  0  0  0  0  0
   -8.4122    4.4815   74.1662 H   0  0  0  0  0  0
   -8.0716    8.0343   66.0114 H   0  0  0  0  0  0
   -8.6898   12.4570   66.2951 H   0  0  0  0  0  0
  -12.2875   14.5279   67.9934 H   0  0  0  0  0  0
   -9.0578   20.0424   66.1049 H   0  0  0  0  0  0
  1  2  1  0  0  0
  1 41  1  0  0  0
  1 42  1  0  0  0
  2  3  2  0  0  0
  2  4  2  0  0  0
  2  5  1  0  0  0
  5  6  2  0  0  0
  5 40  1  0  0  0
  6  7  1  0  0  0
  7  8  2  0  0  0
  8  9  1  0  0  0
  8 39  1  0  0  0
  9 10  1  0  0  0
 10 11  2  0  0  0
 10 38  1  0  0  0
 11 12  1  0  0  0
 12 13  2  0  0  0
 13 14  1  0  0  0
 14 15  1  0  0  0
 14 38  2  0  0  0
 15 16  1  0  0  0
 15 43  1  0  0  0
 16 17  2  0  0  0
 16 18  1  0  0  0
 18 19  1  0  0  0
 18 20  1  0  0  0
 19 44  1  0  0  0
 20 21  2  0  0  0
 20 25  1  0  0  0
 21 22  1  0  0  0
 22 23  2  0  0  0
 23 24  1  0  0  0
 24 25  2  0  0  0
 25 26  1  0  0  0
 26 27  1  0  0  0
 27 28  1  0  0  0
 28 29  1  0  0  0
 28 45  1  0  0  0
 29 30  2  0  0  0
 29 31  1  0  0  0
 31 32  1  0  0  0
 31 37  1  0  0  0
 32 33  1  0  0  0
 33 34  1  0  0  0
 34 35  1  0  0  0
 34 36  1  0  0  0
 35 46  1  0  0  0
 36 37  1  0  0  0
 39 40  2  0  0  0
M  END
>  <AUTHOR>
    GENERATED BY OPEN BABEL 2.3.2

>  <CHROM.1>
177.78471651,56.79128981,1.56476934,57.55155593,99.98339434,-118.84273774
92.49884275,177.74089915,-42.94396090,85.65995045,53.24138417,-110.06249372
67.92100910,172.22512583,-10.45392444,10.51630191,68.39026707,-1.71494727
-1.51266503,-0.81361198

>  <COMPND>
    UNNAMED

>  <MASTER>
        0    0    0    0    0    0    0    0   74    0   74    0

>  <Name>
ligands/mol7.pdb

>  <RI>
3.51511e+07

>  <Rbt.Current_Directory>
/home/rodrigo/Desktop/Rodrigo/Proyectos/test_OCONDOR/OCONDOR

>  <Rbt.Executable>
rbdock ($Id: //depot/dev/client3/rdock/2013.1/src/exe/rbdock.cxx#4 $)

>  <Rbt.Library>
libRbt.so (2013.1, Build901 2013/11/27)

>  <Rbt.Parameter_File>
dock.prm

>  <Rbt.Receptor>
rdock.prm

>  <SCORE>
-15.5839

>  <SCORE.INTER>
-10.7562

>  <SCORE.INTER.CONST>
1

>  <SCORE.INTER.POLAR>
0

>  <SCORE.INTER.REPUL>
0

>  <SCORE.INTER.ROT>
13

>  <SCORE.INTER.VDW>
-29.1562

>  <SCORE.INTER.norm>
-0.268905

>  <SCORE.INTRA>
-4.82764

>  <SCORE.INTRA.DIHEDRAL>
-2.02437

>  <SCORE.INTRA.DIHEDRAL.0>
11.1439

>  <SCORE.INTRA.POLAR>
-1

>  <SCORE.INTRA.POLAR.0>
0

>  <SCORE.INTRA.REPUL>
0

>  <SCORE.INTRA.REPUL.0>
0

>  <SCORE.INTRA.VDW>
-0.415453

>  <SCORE.INTRA.VDW.0>
-6.16825

>  <SCORE.INTRA.norm>
-0.120691

>  <SCORE.RESTR>
0

>  <SCORE.RESTR.CAVITY>
0

>  <SCORE.RESTR.norm>
0

>  <SCORE.SYSTEM>
0

>  <SCORE.SYSTEM.CONST>
0

>  <SCORE.SYSTEM.DIHEDRAL>
0

>  <SCORE.SYSTEM.norm>
0

>  <SCORE.heavy>
40

>  <SCORE.norm>
-0.389596

$$$$
ligands/mol7.pdb
  rDOCK(R)          3D
libRbt.so/2013.1/901 2013/11/27
 46 49  0  0  0  0  0  0  0  0999 V2000
   -8.7906   18.3575   65.8764 N   0  0  0  0  0  0
  -10.4423   18.5438   66.0988 S   0  0  0  0  0  0
  -10.6588   18.6149   67.5090 O   0  0  0  0  0  0
  -10.8461   19.6084   65.1916 O   0  0  0  0  0  0
  -11.0575   17.0108   65.4799 C   0  0  0  0  0  0
  -11.5856   16.9429   64.1950 C   0  0  0  0  0  0
  -12.0915   15.7330   63.7339 C   0  0  0  0  0  0
  -12.0802   14.5930   64.5525 C   0  0  0  0  0  0
  -12.6267   13.2826   64.0485 C   0  0  0  0  0  0
  -11.6161   12.1662   64.0931 C   0  0  0  0  0  0
  -10.9356   11.7536   62.9460 C   0  0  0  0  0  0
   -9.9392   10.7822   63.0445 C   0  0  0  0  0  0
   -9.6242   10.2150   64.2844 C   0  0  0  0  0  0
  -10.3520   10.5696   65.4183 C   0  0  0  0  0  0
  -10.1258    9.9634   66.6714 N   0  0  0  0  0  0
   -9.9371    8.5866   66.7837 C   0  0  0  0  0  0
  -10.2024    7.7785   65.8943 O   0  0  0  0  0  0
   -9.4506    8.1386   68.1741 C   0  0  0  0  0  0
   -7.7732    8.8972   68.3771 S   0  0  0  0  0  0
  -10.4036    8.4619   69.3245 C   0  0  0  0  0  0
  -10.3401    9.7070   69.9657 C   0  0  0  0  0  0
  -11.0850   10.0847   71.0326 N   0  0  0  0  0  0
  -11.9777    9.1961   71.4920 C   0  0  0  0  0  0
  -12.1712    7.9546   70.9174 C   0  0  0  0  0  0
  -11.3874    7.5679   69.8116 C   0  0  0  0  0  0
  -11.7106    6.2233   69.1938 C   0  0  0  0  0  0
  -10.6087    5.1955   69.4733 C   0  0  0  0  0  0
  -10.3346    5.0801   70.8960 N   0  0  0  0  0  0
   -9.3888    5.8446   71.5400 C   0  0  0  0  0  0
   -8.7343    6.6996   70.9589 O   0  0  0  0  0  0
   -9.1967    5.5147   73.0232 C   0  0  0  0  0  0
  -10.4824    5.7491   73.8354 C   0  0  0  0  0  0
  -11.4760    4.5876   73.8240 C   0  0  0  0  0  0
  -10.8430    3.2319   74.0941 C   0  0  0  0  0  0
  -10.4832    3.1337   75.4664 O   0  0  0  0  0  0
   -9.6163    2.9843   73.2247 C   0  0  0  0  0  0
   -8.5950    4.1194   73.2344 C   0  0  0  0  0  0
  -11.3525   11.5256   65.3107 C   0  0  0  0  0  0
  -11.5487   14.6789   65.8431 C   0  0  0  0  0  0
  -11.0352   15.8901   66.3158 C   0  0  0  0  0  0
   -8.3210   18.3581   66.7822 H   0  0  0  0  0  0
   -8.4391   19.0506   65.2193 H   0  0  0  0  0  0
   -9.6564   10.5410   67.3599 H   0  0  0  0  0  0
   -7.2876    8.4549   67.2010 H   0  0  0  0  0  0
  -10.7206    4.2827   71.3846 H   0  0  0  0  0  0
   -9.8571    3.8573   75.6534 H   0  0  0  0  0  0
  1  2  1  0  0  0
  1 41  1  0  0  0
  1 42  1  0  0  0
  2  3  2  0  0  0
  2  4  2  0  0  0
  2  5  1  0  0  0
  5  6  2  0  0  0
  5 40  1  0  0  0
  6  7  1  0  0  0
  7  8  2  0  0  0
  8  9  1  0  0  0
  8 39  1  0  0  0
  9 10  1  0  0  0
 10 11  2  0  0  0
 10 38  1  0  0  0
 11 12  1  0  0  0
 12 13  2  0  0  0
 13 14  1  0  0  0
 14 15  1  0  0  0
 14 38  2  0  0  0
 15 16  1  0  0  0
 15 43  1  0  0  0
 16 17  2  0  0  0
 16 18  1  0  0  0
 18 19  1  0  0  0
 18 20  1  0  0  0
 19 44  1  0  0  0
 20 21  2  0  0  0
 20 25  1  0  0  0
 21 22  1  0  0  0
 22 23  2  0  0  0
 23 24  1  0  0  0
 24 25  2  0  0  0
 25 26  1  0  0  0
 26 27  1  0  0  0
 27 28  1  0  0  0
 28 29  1  0  0  0
 28 45  1  0  0  0
 29 30  2  0  0  0
 29 31  1  0  0  0
 31 32  1  0  0  0
 31 37  1  0  0  0
 32 33  1  0  0  0
 33 34  1  0  0  0
 34 35  1  0  0  0
 34 36  1  0  0  0
 35 46  1  0  0  0
 36 37  1  0  0  0
 39 40  2  0  0  0
M  END
>  <AUTHOR>
    GENERATED BY OPEN BABEL 2.3.2

>  <CHROM.1>
-1.23811189,-99.90768159,122.48687518,-101.08845900,-42.97906144,-14.69923083
-64.47193264,-50.93879823,-86.83618023,73.10378336,54.35867752,-90.53055546
-61.67470184,-59.16653386,-10.44693823,10.34125585,68.28702032,3.03428713
1.51809449,-2.02686285

>  <COMPND>
    UNNAMED

>  <MASTER>
        0    0    0    0    0    0    0    0   74    0   74    0

>  <Name>
ligands/mol7.pdb

>  <RI>
3.51511e+07

>  <Rbt.Current_Directory>
/home/rodrigo/Desktop/Rodrigo/Proyectos/test_OCONDOR/OCONDOR

>  <Rbt.Executable>
rbdock ($Id: //depot/dev/client3/rdock/2013.1/src/exe/rbdock.cxx#4 $)

>  <Rbt.Library>
libRbt.so (2013.1, Build901 2013/11/27)

>  <Rbt.Parameter_File>
dock.prm

>  <Rbt.Receptor>
rdock.prm

>  <SCORE>
-11.1802

>  <SCORE.INTER>
-10.6266

>  <SCORE.INTER.CONST>
1

>  <SCORE.INTER.POLAR>
0

>  <SCORE.INTER.REPUL>
0.00701068

>  <SCORE.INTER.ROT>
13

>  <SCORE.INTER.VDW>
-29.0616

>  <SCORE.INTER.norm>
-0.265664

>  <SCORE.INTRA>
-0.553576

>  <SCORE.INTRA.DIHEDRAL>
-0.123141

>  <SCORE.INTRA.DIHEDRAL.0>
11.1439

>  <SCORE.INTRA.POLAR>
0

>  <SCORE.INTRA.POLAR.0>
0

>  <SCORE.INTRA.REPUL>
0

>  <SCORE.INTRA.REPUL.0>
0

>  <SCORE.INTRA.VDW>
-0.492005

>  <SCORE.INTRA.VDW.0>
-6.16825

>  <SCORE.INTRA.norm>
-0.0138394

>  <SCORE.RESTR>
0

>  <SCORE.RESTR.CAVITY>
0

>  <SCORE.RESTR.norm>
0

>  <SCORE.SYSTEM>
0

>  <SCORE.SYSTEM.CONST>
0

>  <SCORE.SYSTEM.DIHEDRAL>
0

>  <SCORE.SYSTEM.norm>
0

>  <SCORE.heavy>
40

>  <SCORE.norm>
-0.279504

$$$$
ligands/mol7.pdb
  rDOCK(R)          3D
libRbt.so/2013.1/901 2013/11/27
 46 49  0  0  0  0  0  0  0  0999 V2000
   -9.5303    6.7195   78.2280 N   0  0  0  0  0  0
   -8.1256    6.6988   77.3122 S   0  0  0  0  0  0
   -7.3019    7.7571   77.8044 O   0  0  0  0  0  0
   -7.6862    5.3111   77.2930 O   0  0  0  0  0  0
   -8.7400    7.1189   75.7130 C   0  0  0  0  0  0
   -8.0846    8.0777   74.9476 C   0  0  0  0  0  0
   -8.5988    8.4165   73.7013 C   0  0  0  0  0  0
   -9.7686    7.8089   73.2194 C   0  0  0  0  0  0
  -10.3215    8.1764   71.8670 C   0  0  0  0  0  0
   -9.2522    8.3489   70.8199 C   0  0  0  0  0  0
   -8.0634    7.6182   70.8658 C   0  0  0  0  0  0
   -7.1390    7.7353   69.8276 C   0  0  0  0  0  0
   -7.3938    8.5859   68.7460 C   0  0  0  0  0  0
   -8.5435    9.3727   68.7337 C   0  0  0  0  0  0
   -8.8004   10.3045   67.7067 N   0  0  0  0  0  0
   -9.1349   11.6262   67.9982 C   0  0  0  0  0  0
   -8.3874   12.4168   68.5732 O   0  0  0  0  0  0
  -10.5809   11.9976   67.6217 C   0  0  0  0  0  0
  -11.6257   10.5989   68.2404 S   0  0  0  0  0  0
  -11.0449   13.3657   68.1209 C   0  0  0  0  0  0
  -10.6439   13.8310   69.3811 C   0  0  0  0  0  0
  -11.0386   14.9925   69.9562 N   0  0  0  0  0  0
  -11.8617   15.7725   69.2409 C   0  0  0  0  0  0
  -12.2900   15.4501   67.9675 C   0  0  0  0  0  0
  -11.8792   14.2367   67.3796 C   0  0  0  0  0  0
  -12.3313   13.9910   65.9551 C   0  0  0  0  0  0
  -11.6416   14.9441   64.9729 C   0  0  0  0  0  0
  -10.2233   15.0747   65.2625 N   0  0  0  0  0  0
   -9.6443   16.2630   65.6450 C   0  0  0  0  0  0
  -10.2958   17.2874   65.7980 O   0  0  0  0  0  0
   -8.1244   16.2088   65.8255 C   0  0  0  0  0  0
   -7.5155   17.6114   65.9973 C   0  0  0  0  0  0
   -7.5498   18.1618   67.4228 C   0  0  0  0  0  0
   -7.0723   17.1752   68.4765 C   0  0  0  0  0  0
   -5.6613   17.0220   68.3879 O   0  0  0  0  0  0
   -7.7442   15.8145   68.3395 C   0  0  0  0  0  0
   -7.7055   15.2293   66.9296 C   0  0  0  0  0  0
   -9.4520    9.2628   69.7772 C   0  0  0  0  0  0
  -10.4174    6.8493   74.0029 C   0  0  0  0  0  0
   -9.9075    6.4995   75.2565 C   0  0  0  0  0  0
  -10.0944    7.5299   77.9713 H   0  0  0  0  0  0
   -9.3101    6.6568   79.2196 H   0  0  0  0  0  0
   -8.3057   10.1455   66.8361 H   0  0  0  0  0  0
  -12.7510   10.9896   67.6113 H   0  0  0  0  0  0
   -9.6174   14.3112   64.9916 H   0  0  0  0  0  0
   -5.4648   16.6623   67.5032 H   0  0  0  0  0  0
  1  2  1  0  0  0
  1 41  1  0  0  0
  1 42  1  0  0  0
  2  3  2  0  0  0
  2  4  2  0  0  0
  2  5  1  0  0  0
  5  6  2  0  0  0
  5 40  1  0  0  0
  6  7  1  0  0  0
  7  8  2  0  0  0
  8  9  1  0  0  0
  8 39  1  0  0  0
  9 10  1  0  0  0
 10 11  2  0  0  0
 10 38  1  0  0  0
 11 12  1  0  0  0
 12 13  2  0  0  0
 13 14  1  0  0  0
 14 15  1  0  0  0
 14 38  2  0  0  0
 15 16  1  0  0  0
 15 43  1  0  0  0
 16 17  2  0  0  0
 16 18  1  0  0  0
 18 19  1  0  0  0
 18 20  1  0  0  0
 19 44  1  0  0  0
 20 21  2  0  0  0
 20 25  1  0  0  0
 21 22  1  0  0  0
 22 23  2  0  0  0
 23 24  1  0  0  0
 24 25  2  0  0  0
 25 26  1  0  0  0
 26 27  1  0  0  0
 27 28  1  0  0  0
 28 29  1  0  0  0
 28 45  1  0  0  0
 29 30  2  0  0  0
 29 31  1  0  0  0
 31 32  1  0  0  0
 31 37  1  0  0  0
 32 33  1  0  0  0
 33 34  1  0  0  0
 34 35  1  0  0  0
 34 36  1  0  0  0
 35 46  1  0  0  0
 36 37  1  0  0  0
 39 40  2  0  0  0
M  END
>  <AUTHOR>
    GENERATED BY OPEN BABEL 2.3.2

>  <CHROM.1>
72.01034922,133.71346479,40.61042659,30.89022075,-129.05316559,63.41150404
45.55290491,-169.38079385,-37.62223176,-108.59631199,43.41830654,-116.51358383
169.52046504,-61.67575880,-9.27822931,11.58723916,70.18748459,-1.46183273
-0.87833335,-0.70416134

>  <COMPND>
    UNNAMED

>  <MASTER>
        0    0    0    0    0    0    0    0   74    0   74    0

>  <Name>
ligands/mol7.pdb

>  <RI>
3.51511e+07

>  <Rbt.Current_Directory>
/home/rodrigo/Desktop/Rodrigo/Proyectos/test_OCONDOR/OCONDOR

>  <Rbt.Executable>
rbdock ($Id: //depot/dev/client3/rdock/2013.1/src/exe/rbdock.cxx#4 $)

>  <Rbt.Library>
libRbt.so (2013.1, Build901 2013/11/27)

>  <Rbt.Parameter_File>
dock.prm

>  <Rbt.Receptor>
rdock.prm

>  <SCORE>
-10.2594

>  <SCORE.INTER>
-10.4598

>  <SCORE.INTER.CONST>
1

>  <SCORE.INTER.POLAR>
-1.90951

>  <SCORE.INTER.REPUL>
0.0423823

>  <SCORE.INTER.ROT>
13

>  <SCORE.INTER.VDW>
-22.5793

>  <SCORE.INTER.norm>
-0.261494

>  <SCORE.INTRA>
0.200317

>  <SCORE.INTRA.DIHEDRAL>
-1.3554

>  <SCORE.INTRA.DIHEDRAL.0>
11.1439

>  <SCORE.INTRA.POLAR>
0

>  <SCORE.INTRA.POLAR.0>
0

>  <SCORE.INTRA.REPUL>
0

>  <SCORE.INTRA.REPUL.0>
0

>  <SCORE.INTRA.VDW>
0.878019

>  <SCORE.INTRA.VDW.0>
-6.16825

>  <SCORE.INTRA.norm>
0.00500792

>  <SCORE.RESTR>
0

>  <SCORE.RESTR.CAVITY>
0

>  <SCORE.RESTR.norm>
0

>  <SCORE.SYSTEM>
0

>  <SCORE.SYSTEM.CONST>
0

>  <SCORE.SYSTEM.DIHEDRAL>
0

>  <SCORE.SYSTEM.norm>
0

>  <SCORE.heavy>
40

>  <SCORE.norm>
-0.256486

$$$$
ligands/mol7.pdb
  rDOCK(R)          3D
libRbt.so/2013.1/901 2013/11/27
 46 49  0  0  0  0  0  0  0  0999 V2000
  -11.0344   19.3553   68.0006 N   0  0  0  0  0  0
  -10.3171   17.9351   68.5308 S   0  0  0  0  0  0
   -8.9080   18.1044   68.3690 O   0  0  0  0  0  0
  -10.9260   17.6418   69.8202 O   0  0  0  0  0  0
  -10.9157   16.7731   67.3462 C   0  0  0  0  0  0
  -10.6283   16.9475   65.9966 C   0  0  0  0  0  0
  -11.1317   16.0376   65.0741 C   0  0  0  0  0  0
  -11.9275   14.9595   65.4917 C   0  0  0  0  0  0
  -12.4690   13.9735   64.4895 C   0  0  0  0  0  0
  -11.4997   12.8654   64.1697 C   0  0  0  0  0  0
  -11.1656   12.5480   62.8518 C   0  0  0  0  0  0
  -10.1933   11.5802   62.5986 C   0  0  0  0  0  0
   -9.5577   10.9219   63.6574 C   0  0  0  0  0  0
   -9.9419   11.1821   64.9711 C   0  0  0  0  0  0
   -9.3885   10.4831   66.0639 N   0  0  0  0  0  0
   -9.8998    9.2497   66.4655 C   0  0  0  0  0  0
  -10.2271    8.3524   65.6896 O   0  0  0  0  0  0
  -10.1173    9.1336   67.9852 C   0  0  0  0  0  0
  -11.6472   10.1155   68.3403 S   0  0  0  0  0  0
  -10.1797    7.7028   68.5192 C   0  0  0  0  0  0
  -11.2206    6.8483   68.1295 C   0  0  0  0  0  0
  -11.4175    5.5864   68.5818 N   0  0  0  0  0  0
  -10.5194    5.1103   69.4560 C   0  0  0  0  0  0
   -9.4223    5.8346   69.8811 C   0  0  0  0  0  0
   -9.2291    7.1490   69.4100 C   0  0  0  0  0  0
   -7.9653    7.8488   69.8650 C   0  0  0  0  0  0
   -8.1942    8.6418   71.1563 C   0  0  0  0  0  0
   -8.5290    7.7671   72.2678 N   0  0  0  0  0  0
   -7.6056    7.3584   73.2026 C   0  0  0  0  0  0
   -6.4409    7.7328   73.1769 O   0  0  0  0  0  0
   -8.1406    6.3747   74.2475 C   0  0  0  0  0  0
   -9.3491    6.9463   75.0093 C   0  0  0  0  0  0
  -10.6980    6.7634   74.3142 C   0  0  0  0  0  0
  -10.9376    5.3552   73.7935 C   0  0  0  0  0  0
  -11.1874    4.4756   74.8825 O   0  0  0  0  0  0
   -9.7623    4.8349   72.9750 C   0  0  0  0  0  0
   -8.4031    4.9842   73.6548 C   0  0  0  0  0  0
  -10.9207   12.1352   65.2156 C   0  0  0  0  0  0
  -12.2099   14.8003   66.8521 C   0  0  0  0  0  0
  -11.7067   15.7083   67.7883 C   0  0  0  0  0  0
  -11.0339   20.0415   68.7555 H   0  0  0  0  0  0
  -11.9525   19.1647   67.6052 H   0  0  0  0  0  0
   -8.4000   10.6371   66.2281 H   0  0  0  0  0  0
  -11.1425   11.2950   67.9294 H   0  0  0  0  0  0
   -9.4249    7.2977   72.2414 H   0  0  0  0  0  0
  -11.3743    3.5957   74.5063 H   0  0  0  0  0  0
  1  2  1  0  0  0
  1 41  1  0  0  0
  1 42  1  0  0  0
  2  3  2  0  0  0
  2  4  2  0  0  0
  2  5  1  0  0  0
  5  6  2  0  0  0
  5 40  1  0  0  0
  6  7  1  0  0  0
  7  8  2  0  0  0
  8  9  1  0  0  0
  8 39  1  0  0  0
  9 10  1  0  0  0
 10 11  2  0  0  0
 10 38  1  0  0  0
 11 12  1  0  0  0
 12 13  2  0  0  0
 13 14  1  0  0  0
 14 15  1  0  0  0
 14 38  2  0  0  0
 15 16  1  0  0  0
 15 43  1  0  0  0
 16 17  2  0  0  0
 16 18  1  0  0  0
 18 19  1  0  0  0
 18 20  1  0  0  0
 19 44  1  0  0  0
 20 21  2  0  0  0
 20 25  1  0  0  0
 21 22  1  0  0  0
 22 23  2  0  0  0
 23 24  1  0  0  0
 24 25  2  0  0  0
 25 26  1  0  0  0
 26 27  1  0  0  0
 27 28  1  0  0  0
 28 29  1  0  0  0
 28 45  1  0  0  0
 29 30  2  0  0  0
 29 31  1  0  0  0
 31 32  1  0  0  0
 31 37  1  0  0  0
 32 33  1  0  0  0
 33 34  1  0  0  0
 34 35  1  0  0  0
 34 36  1  0  0  0
 35 46  1  0  0  0
 36 37  1  0  0  0
 39 40  2  0  0  0
M  END
>  <AUTHOR>
    GENERATED BY OPEN BABEL 2.3.2

>  <CHROM.1>
-84.14157481,59.99791128,85.51608625,-128.29485669,-84.71059285,42.51659294
75.69225953,-62.32602217,-64.63515485,91.38667631,64.25889631,98.75512041
-57.06020557,177.53999471,-10.18379887,10.68609895,68.79425143,-2.33131667
1.39199196,-2.94019846

>  <COMPND>
    UNNAMED

>  <MASTER>
        0    0    0    0    0    0    0    0   74    0   74    0

>  <Name>
ligands/mol7.pdb

>  <RI>
3.51511e+07

>  <Rbt.Current_Directory>
/home/rodrigo/Desktop/Rodrigo/Proyectos/test_OCONDOR/OCONDOR

>  <Rbt.Executable>
rbdock ($Id: //depot/dev/client3/rdock/2013.1/src/exe/rbdock.cxx#4 $)

>  <Rbt.Library>
libRbt.so (2013.1, Build901 2013/11/27)

>  <Rbt.Parameter_File>
dock.prm

>  <Rbt.Receptor>
rdock.prm

>  <SCORE>
-11.144

>  <SCORE.INTER>
-8.86916

>  <SCORE.INTER.CONST>
1

>  <SCORE.INTER.POLAR>
0

>  <SCORE.INTER.REPUL>
0

>  <SCORE.INTER.ROT>
13

>  <SCORE.INTER.VDW>
-27.2692

>  <SCORE.INTER.norm>
-0.221729

>  <SCORE.INTRA>
-2.27485

>  <SCORE.INTRA.DIHEDRAL>
-2.52334

>  <SCORE.INTRA.DIHEDRAL.0>
11.1439

>  <SCORE.INTRA.POLAR>
0

>  <SCORE.INTRA.POLAR.0>
0

>  <SCORE.INTRA.REPUL>
0

>  <SCORE.INTRA.REPUL.0>
0

>  <SCORE.INTRA.VDW>
-1.01319

>  <SCORE.INTRA.VDW.0>
-6.16825

>  <SCORE.INTRA.norm>
-0.0568714

>  <SCORE.RESTR>
0

>  <SCORE.RESTR.CAVITY>
0

>  <SCORE.RESTR.norm>
0

>  <SCORE.SYSTEM>
0

>  <SCORE.SYSTEM.CONST>
0

>  <SCORE.SYSTEM.DIHEDRAL>
0

>  <SCORE.SYSTEM.norm>
0

>  <SCORE.heavy>
40

>  <SCORE.norm>
-0.2786

$$$$
ligands/mol7.pdb
  rDOCK(R)          3D
libRbt.so/2013.1/901 2013/11/27
 46 49  0  0  0  0  0  0  0  0999 V2000
  -11.0473   17.6518   67.3183 N   0  0  0  0  0  0
   -9.7906   16.9267   66.4771 S   0  0  0  0  0  0
  -10.3815   15.9356   65.6350 O   0  0  0  0  0  0
   -8.9843   18.0189   65.9514 O   0  0  0  0  0  0
   -8.8982   16.1428   67.7812 C   0  0  0  0  0  0
   -9.5869   15.5110   68.8113 C   0  0  0  0  0  0
   -8.8678   14.9227   69.8454 C   0  0  0  0  0  0
   -7.4651   14.9695   69.8601 C   0  0  0  0  0  0
   -6.6889   14.3283   70.9808 C   0  0  0  0  0  0
   -5.8046   13.2007   70.5158 C   0  0  0  0  0  0
   -4.5474   13.4432   69.9592 C   0  0  0  0  0  0
   -3.7189   12.3707   69.6283 C   0  0  0  0  0  0
   -4.1442   11.0552   69.8443 C   0  0  0  0  0  0
   -5.4267   10.8080   70.3293 C   0  0  0  0  0  0
   -5.9278    9.4988   70.4837 N   0  0  0  0  0  0
   -7.2690    9.2058   70.2404 C   0  0  0  0  0  0
   -8.0215    9.9172   69.5756 O   0  0  0  0  0  0
   -7.7696    7.9434   70.9659 C   0  0  0  0  0  0
   -6.5566    7.6478   72.3340 S   0  0  0  0  0  0
   -9.2190    8.0093   71.4467 C   0  0  0  0  0  0
   -9.5093    8.3879   72.7650 C   0  0  0  0  0  0
  -10.7435    8.4224   73.3230 N   0  0  0  0  0  0
  -11.7743    8.0918   72.5320 C   0  0  0  0  0  0
  -11.6254    7.7481   71.2021 C   0  0  0  0  0  0
  -10.3370    7.7089   70.6318 C   0  0  0  0  0  0
  -10.2645    7.3956   69.1517 C   0  0  0  0  0  0
  -10.2187    8.6734   68.3070 C   0  0  0  0  0  0
  -11.3610    9.5315   68.5744 N   0  0  0  0  0  0
  -11.3313   10.5497   69.4998 C   0  0  0  0  0  0
  -10.3243   10.8212   70.1397 O   0  0  0  0  0  0
  -12.6613   11.2850   69.6894 C   0  0  0  0  0  0
  -13.5155   10.6506   70.8008 C   0  0  0  0  0  0
  -13.1861   11.1195   72.2178 C   0  0  0  0  0  0
  -13.0612   12.6286   72.3546 C   0  0  0  0  0  0
  -14.3484   13.2273   72.2728 O   0  0  0  0  0  0
  -12.1487   13.2306   71.2931 C   0  0  0  0  0  0
  -12.4689   12.7970   69.8643 C   0  0  0  0  0  0
   -6.2518   11.8792   70.6422 C   0  0  0  0  0  0
   -6.7881   15.6115   68.8185 C   0  0  0  0  0  0
   -7.5014   16.2043   67.7725 C   0  0  0  0  0  0
  -10.6774   18.3916   67.9156 H   0  0  0  0  0  0
  -11.5989   16.9510   67.8085 H   0  0  0  0  0  0
   -5.2642    8.7518   70.3118 H   0  0  0  0  0  0
   -5.5950    7.1305   71.5451 H   0  0  0  0  0  0
  -12.2578    9.2476   68.2023 H   0  0  0  0  0  0
  -14.7368   12.9619   71.4188 H   0  0  0  0  0  0
  1  2  1  0  0  0
  1 41  1  0  0  0
  1 42  1  0  0  0
  2  3  2  0  0  0
  2  4  2  0  0  0
  2  5  1  0  0  0
  5  6  2  0  0  0
  5 40  1  0  0  0
  6  7  1  0  0  0
  7  8  2  0  0  0
  8  9  1  0  0  0
  8 39  1  0  0  0
  9 10  1  0  0  0
 10 11  2  0  0  0
 10 38  1  0  0  0
 11 12  1  0  0  0
 12 13  2  0  0  0
 13 14  1  0  0  0
 14 15  1  0  0  0
 14 38  2  0  0  0
 15 16  1  0  0  0
 15 43  1  0  0  0
 16 17  2  0  0  0
 16 18  1  0  0  0
 18 19  1  0  0  0
 18 20  1  0  0  0
 19 44  1  0  0  0
 20 21  2  0  0  0
 20 25  1  0  0  0
 21 22  1  0  0  0
 22 23  2  0  0  0
 23 24  1  0  0  0
 24 25  2  0  0  0
 25 26  1  0  0  0
 26 27  1  0  0  0
 27 28  1  0  0  0
 28 29  1  0  0  0
 28 45  1  0  0  0
 29 30  2  0  0  0
 29 31  1  0  0  0
 31 32  1  0  0  0
 31 37  1  0  0  0
 32 33  1  0  0  0
 33 34  1  0  0  0
 34 35  1  0  0  0
 34 36  1  0  0  0
 35 46  1  0  0  0
 36 37  1  0  0  0
 39 40  2  0  0  0
M  END
>  <AUTHOR>
    GENERATED BY OPEN BABEL 2.3.2

>  <CHROM.1>
-178.22698021,40.45079258,116.97372375,81.90038338,-144.09845798,19.14163482
19.33853087,-76.82047645,-95.62959026,-83.07568708,-56.72244675,93.46886561
90.80701208,-57.56696909,-9.24860422,11.91032696,69.92327476,1.54037572,0.06079204
-0.44634470

>  <COMPND>
    UNNAMED

>  <MASTER>
        0    0    0    0    0    0    0    0   74    0   74    0

>  <Name>
ligands/mol7.pdb

>  <RI>
3.51511e+07

>  <Rbt.Current_Directory>
/home/rodrigo/Desktop/Rodrigo/Proyectos/test_OCONDOR/OCONDOR

>  <Rbt.Executable>
rbdock ($Id: //depot/dev/client3/rdock/2013.1/src/exe/rbdock.cxx#4 $)

>  <Rbt.Library>
libRbt.so (2013.1, Build901 2013/11/27)

>  <Rbt.Parameter_File>
dock.prm

>  <Rbt.Receptor>
rdock.prm

>  <SCORE>
-3.81858

>  <SCORE.INTER>
-3.83009

>  <SCORE.INTER.CONST>
1

>  <SCORE.INTER.POLAR>
-0.894427

>  <SCORE.INTER.REPUL>
0.000911105

>  <SCORE.INTER.ROT>
13

>  <SCORE.INTER.VDW>
-19.1936

>  <SCORE.INTER.norm>
-0.0957523

>  <SCORE.INTRA>
0.0115089

>  <SCORE.INTRA.DIHEDRAL>
-0.772375

>  <SCORE.INTRA.DIHEDRAL.0>
11.1439

>  <SCORE.INTRA.POLAR>
0

>  <SCORE.INTRA.POLAR.0>
0

>  <SCORE.INTRA.REPUL>
0.0379936

>  <SCORE.INTRA.REPUL.0>
0

>  <SCORE.INTRA.VDW>
0.207728

>  <SCORE.INTRA.VDW.0>
-6.16825

>  <SCORE.INTRA.norm>
0.000287722

>  <SCORE.RESTR>
0

>  <SCORE.RESTR.CAVITY>
0

>  <SCORE.RESTR.norm>
0

>  <SCORE.SYSTEM>
0

>  <SCORE.SYSTEM.CONST>
0

>  <SCORE.SYSTEM.DIHEDRAL>
0

>  <SCORE.SYSTEM.norm>
0

>  <SCORE.heavy>
40

>  <SCORE.norm>
-0.0954646

$$$$
