ligands/mol8.pdb
  rDOCK(R)          3D
libRbt.so/2013.1/901 2013/11/27
 47 50  0  0  0  0  0  0  0  0999 V2000
   -8.3283    7.6888   76.5142 N   0  0  0  0  0  0
   -9.1864    6.2733   76.2170 S   0  0  0  0  0  0
   -8.1751    5.2560   75.9242 O   0  0  0  0  0  0
  -10.1220    6.1457   77.2913 O   0  0  0  0  0  0
  -10.0416    6.6701   74.7112 C   0  0  0  0  0  0
   -9.7874    7.8675   74.0490 C   0  0  0  0  0  0
  -10.4772    8.1437   72.8588 C   0  0  0  0  0  0
  -11.4295    7.2442   72.3523 C   0  0  0  0  0  0
  -12.2364    7.5751   71.1130 C   0  0  0  0  0  0
  -11.5322    8.2344   69.9399 C   0  0  0  0  0  0
  -11.0565    7.4721   68.8671 C   0  0  0  0  0  0
  -10.6419    8.0960   67.6916 C   0  0  0  0  0  0
  -10.7216    9.4872   67.5567 C   0  0  0  0  0  0
  -11.1788   10.2811   68.6089 C   0  0  0  0  0  0
  -11.3808   11.6881   68.5093 N   0  0  0  0  0  0
  -11.0967   12.5002   67.4197 C   0  0  0  0  0  0
  -10.5496   12.1281   66.3811 O   0  0  0  0  0  0
  -11.6346   13.9412   67.4777 C   0  0  0  0  0  0
  -10.9161   14.6658   68.6613 C   0  0  0  0  0  0
   -9.1885   14.1740   69.0612 S   0  0  0  0  0  0
  -11.7188   14.6681   66.1321 C   0  0  0  0  0  0
  -12.8942   14.5588   65.3728 C   0  0  0  0  0  0
  -13.1864   15.2482   64.2499 N   0  0  0  0  0  0
  -12.2438   16.0760   63.8016 C   0  0  0  0  0  0
  -10.9962   16.1708   64.3818 C   0  0  0  0  0  0
  -10.6896   15.4579   65.5587 C   0  0  0  0  0  0
   -9.2426   15.5390   66.0390 C   0  0  0  0  0  0
   -8.9530   16.5869   67.1338 C   0  0  0  0  0  0
   -8.7583   17.9429   66.6424 N   0  0  0  0  0  0
   -7.5552   18.3452   66.1081 C   0  0  0  0  0  0
   -6.5878   17.5925   66.0353 O   0  0  0  0  0  0
   -7.4885   19.8228   65.6966 C   0  0  0  0  0  0
   -7.7609   20.7331   66.9106 C   0  0  0  0  0  0
   -6.5618   20.8288   67.8626 C   0  0  0  0  0  0
   -5.2566   21.1659   67.1416 C   0  0  0  0  0  0
   -5.3036   22.4821   66.5922 O   0  0  0  0  0  0
   -4.9986   20.1932   65.9940 C   0  0  0  0  0  0
   -6.1689   20.2002   65.0097 C   0  0  0  0  0  0
  -11.5416    9.6439   69.8103 C   0  0  0  0  0  0
  -11.6834    6.0585   73.0645 C   0  0  0  0  0  0
  -10.9894    5.7680   74.2370 C   0  0  0  0  0  0
   -7.6376    7.5409   77.2437 H   0  0  0  0  0  0
   -8.9870    8.4513   76.7048 H   0  0  0  0  0  0
  -11.8338   12.1224   69.3068 H   0  0  0  0  0  0
   -9.4708   13.2529   69.9959 H   0  0  0  0  0  0
   -9.5800   18.5041   66.4687 H   0  0  0  0  0  0
   -5.2287   23.1268   67.3157 H   0  0  0  0  0  0
  1  2  1  0  0  0
  1 42  1  0  0  0
  1 43  1  0  0  0
  2  3  2  0  0  0
  2  4  2  0  0  0
  2  5  1  0  0  0
  5  6  2  0  0  0
  5 41  1  0  0  0
  6  7  1  0  0  0
  7  8  2  0  0  0
  8  9  1  0  0  0
  8 40  1  0  0  0
  9 10  1  0  0  0
 10 11  2  0  0  0
 10 39  1  0  0  0
 11 12  1  0  0  0
 12 13  2  0  0  0
 13 14  1  0  0  0
 14 15  1  0  0  0
 14 39  2  0  0  0
 15 16  1  0  0  0
 15 44  1  0  0  0
 16 17  2  0  0  0
 16 18  1  0  0  0
 18 19  1  0  0  0
 18 21  1  0  0  0
 19 20  1  0  0  0
 20 45  1  0  0  0
 21 22  2  0  0  0
 21 26  1  0  0  0
 22 23  1  0  0  0
 23 24  2  0  0  0
 24 25  1  0  0  0
 25 26  2  0  0  0
 26 27  1  0  0  0
 27 28  1  0  0  0
 28 29  1  0  0  0
 29 30  1  0  0  0
 29 46  1  0  0  0
 30 31  2  0  0  0
 30 32  1  0  0  0
 32 33  1  0  0  0
 32 38  1  0  0  0
 33 34  1  0  0  0
 34 35  1  0  0  0
 35 36  1  0  0  0
 35 37  1  0  0  0
 36 47  1  0  0  0
 37 38  1  0  0  0
 40 41  2  0  0  0
M  END
>  <AUTHOR>
    GENERATED BY OPEN BABEL 2.3.2

>  <CHROM.1>
-54.67900114,5.82678883,41.68490187,96.15635201,-3.95765517,64.74668148,31.98401698
89.34156302,-93.13019624,-87.59329347,-82.06668009,-80.31128693,59.13690766
73.28870904,-9.64878558,12.84571751,69.18204088,-1.79232403,-0.80295373,-0.74936937

>  <COMPND>
    UNNAMED

>  <MASTER>
        0    0    0    0    0    0    0    0   77    0   77    0

>  <Name>
ligands/mol8.pdb

>  <RI>
1.30655e+07

>  <Rbt.Current_Directory>
/home/rodrigo/Desktop/Rodrigo/Proyectos/test_OCONDOR/OCONDOR

>  <Rbt.Executable>
rbdock ($Id: //depot/dev/client3/rdock/2013.1/src/exe/rbdock.cxx#4 $)

>  <Rbt.Library>
libRbt.so (2013.1, Build901 2013/11/27)

>  <Rbt.Parameter_File>
dock.prm

>  <Rbt.Receptor>
rdock.prm

>  <SCORE>
-20.4499

>  <SCORE.INTER>
-19.3335

>  <SCORE.INTER.CONST>
1

>  <SCORE.INTER.POLAR>
-2.13028

>  <SCORE.INTER.REPUL>
0.115446

>  <SCORE.INTER.ROT>
13

>  <SCORE.INTER.VDW>
-31.0678

>  <SCORE.INTER.norm>
-0.471549

>  <SCORE.INTRA>
-1.11638

>  <SCORE.INTRA.DIHEDRAL>
-2.61454

>  <SCORE.INTRA.DIHEDRAL.0>
15.0264

>  <SCORE.INTRA.POLAR>
0

>  <SCORE.INTRA.POLAR.0>
0

>  <SCORE.INTRA.REPUL>
0

>  <SCORE.INTRA.REPUL.0>
0

>  <SCORE.INTRA.VDW>
0.190886

>  <SCORE.INTRA.VDW.0>
-4.74907

>  <SCORE.INTRA.norm>
-0.0272289

>  <SCORE.RESTR>
0

>  <SCORE.RESTR.CAVITY>
0

>  <SCORE.RESTR.norm>
0

>  <SCORE.SYSTEM>
0

>  <SCORE.SYSTEM.CONST>
0

>  <SCORE.SYSTEM.DIHEDRAL>
0

>  <SCORE.SYSTEM.norm>
0

>  <SCORE.heavy>
41

>  <SCORE.norm>
-0.498778

$$$$
ligands/mol8.pdb
  rDOCK(R)          3D
libRbt.so/2013.1/901 2013/11/27
 47 50  0  0  0  0  0  0  0  0999 V2000
  -12.6503   16.6314   74.1206 N   0  0  0  0  0  0
  -13.6450   15.7100   73.1258 S   0  0  0  0  0  0
  -13.5598   14.3433   73.6437 O   0  0  0  0  0  0
  -14.8803   16.4247   73.0313 O   0  0  0  0  0  0
  -12.7823   15.7814   71.5743 C   0  0  0  0  0  0
  -11.5170   16.3556   71.4954 C   0  0  0  0  0  0
  -10.8634   16.3881   70.2543 C   0  0  0  0  0  0
  -11.4805   15.8763   69.1011 C   0  0  0  0  0  0
  -10.8142   15.9836   67.7443 C   0  0  0  0  0  0
  -10.8282   14.7724   66.8281 C   0  0  0  0  0  0
  -10.2465   14.8270   65.5565 C   0  0  0  0  0  0
  -10.0408   13.6567   64.8276 C   0  0  0  0  0  0
  -10.3857   12.4116   65.3665 C   0  0  0  0  0  0
  -10.9790   12.3185   66.6258 C   0  0  0  0  0  0
  -11.2639   11.0839   67.2775 N   0  0  0  0  0  0
  -10.8338    9.8188   66.9006 C   0  0  0  0  0  0
  -10.1873    9.5628   65.8843 O   0  0  0  0  0  0
  -11.0758    8.6817   67.9094 C   0  0  0  0  0  0
  -11.1202    7.3411   67.1076 C   0  0  0  0  0  0
  -11.1660    5.7635   68.0540 S   0  0  0  0  0  0
  -10.2210    8.7341   69.1794 C   0  0  0  0  0  0
   -8.9642    8.1094   69.1792 C   0  0  0  0  0  0
   -8.0330    8.1884   70.1529 N   0  0  0  0  0  0
   -8.3659    8.8917   71.2342 C   0  0  0  0  0  0
   -9.6191    9.4391   71.4120 C   0  0  0  0  0  0
  -10.5920    9.3649   70.3944 C   0  0  0  0  0  0
  -11.9806    9.8916   70.7489 C   0  0  0  0  0  0
  -13.0096    8.8326   71.1962 C   0  0  0  0  0  0
  -12.5677    7.9772   72.2876 N   0  0  0  0  0  0
  -11.8794    6.8093   72.0486 C   0  0  0  0  0  0
  -11.6204    6.4239   70.9120 O   0  0  0  0  0  0
  -11.5422    5.9860   73.2999 C   0  0  0  0  0  0
  -11.0504    4.5798   72.9032 C   0  0  0  0  0  0
   -9.6087    4.5804   72.3789 C   0  0  0  0  0  0
   -8.6400    5.3149   73.3059 C   0  0  0  0  0  0
   -8.5025    4.6258   74.5480 O   0  0  0  0  0  0
   -9.1376    6.7253   73.6106 C   0  0  0  0  0  0
  -10.5360    6.6806   74.2277 C   0  0  0  0  0  0
  -11.2327   13.5115   67.3281 C   0  0  0  0  0  0
  -12.7724   15.3321   69.2122 C   0  0  0  0  0  0
  -13.4206   15.2789   70.4443 C   0  0  0  0  0  0
  -11.8256   16.1030   74.3887 H   0  0  0  0  0  0
  -13.1977   16.9890   74.9105 H   0  0  0  0  0  0
  -11.7925   11.1568   68.1408 H   0  0  0  0  0  0
  -11.6888    6.2464   69.1920 H   0  0  0  0  0  0
  -12.5510    8.3704   73.2179 H   0  0  0  0  0  0
   -8.0938    3.7596   74.3825 H   0  0  0  0  0  0
  1  2  1  0  0  0
  1 42  1  0  0  0
  1 43  1  0  0  0
  2  3  2  0  0  0
  2  4  2  0  0  0
  2  5  1  0  0  0
  5  6  2  0  0  0
  5 41  1  0  0  0
  6  7  1  0  0  0
  7  8  2  0  0  0
  8  9  1  0  0  0
  8 40  1  0  0  0
  9 10  1  0  0  0
 10 11  2  0  0  0
 10 39  1  0  0  0
 11 12  1  0  0  0
 12 13  2  0  0  0
 13 14  1  0  0  0
 14 15  1  0  0  0
 14 39  2  0  0  0
 15 16  1  0  0  0
 15 44  1  0  0  0
 16 17  2  0  0  0
 16 18  1  0  0  0
 18 19  1  0  0  0
 18 21  1  0  0  0
 19 20  1  0  0  0
 20 45  1  0  0  0
 21 22  2  0  0  0
 21 26  1  0  0  0
 22 23  1  0  0  0
 23 24  2  0  0  0
 24 25  1  0  0  0
 25 26  2  0  0  0
 26 27  1  0  0  0
 27 28  1  0  0  0
 28 29  1  0  0  0
 29 30  1  0  0  0
 29 46  1  0  0  0
 30 31  2  0  0  0
 30 32  1  0  0  0
 32 33  1  0  0  0
 32 38  1  0  0  0
 33 34  1  0  0  0
 34 35  1  0  0  0
 35 36  1  0  0  0
 35 37  1  0  0  0
 36 47  1  0  0  0
 37 38  1  0  0  0
 40 41  2  0  0  0
M  END
>  <AUTHOR>
    GENERATED BY OPEN BABEL 2.3.2

>  <CHROM.1>
36.99068952,7.58508247,136.20161735,178.92474939,10.75396532,155.68997394
171.77351645,-88.50790074,24.03269288,78.84473102,53.35235939,-88.58646525
167.94814960,64.54006404,-11.16771420,10.64889017,70.27760335,2.32291704
1.25314733,-0.87058459

>  <COMPND>
    UNNAMED

>  <MASTER>
        0    0    0    0    0    0    0    0   77    0   77    0

>  <Name>
ligands/mol8.pdb

>  <RI>
1.30655e+07

>  <Rbt.Current_Directory>
/home/rodrigo/Desktop/Rodrigo/Proyectos/test_OCONDOR/OCONDOR

>  <Rbt.Executable>
rbdock ($Id: //depot/dev/client3/rdock/2013.1/src/exe/rbdock.cxx#4 $)

>  <Rbt.Library>
libRbt.so (2013.1, Build901 2013/11/27)

>  <Rbt.Parameter_File>
dock.prm

>  <Rbt.Receptor>
rdock.prm

>  <SCORE>
-25.2111

>  <SCORE.INTER>
-17.5001

>  <SCORE.INTER.CONST>
1

>  <SCORE.INTER.POLAR>
-0.985311

>  <SCORE.INTER.REPUL>
0

>  <SCORE.INTER.ROT>
13

>  <SCORE.INTER.VDW>
-32.5501

>  <SCORE.INTER.norm>
-0.426833

>  <SCORE.INTRA>
-7.71091

>  <SCORE.INTRA.DIHEDRAL>
-4.24808

>  <SCORE.INTRA.DIHEDRAL.0>
15.0264

>  <SCORE.INTRA.POLAR>
-0.995834

>  <SCORE.INTRA.POLAR.0>
0

>  <SCORE.INTRA.REPUL>
0

>  <SCORE.INTRA.REPUL.0>
0

>  <SCORE.INTRA.VDW>
-2.20104

>  <SCORE.INTRA.VDW.0>
-4.74907

>  <SCORE.INTRA.norm>
-0.188071

>  <SCORE.RESTR>
0

>  <SCORE.RESTR.CAVITY>
0

>  <SCORE.RESTR.norm>
0

>  <SCORE.SYSTEM>
0

>  <SCORE.SYSTEM.CONST>
0

>  <SCORE.SYSTEM.DIHEDRAL>
0

>  <SCORE.SYSTEM.norm>
0

>  <SCORE.heavy>
41

>  <SCORE.norm>
-0.614904

$$$$
ligands/mol8.pdb
  rDOCK(R)          3D
libRbt.so/2013.1/901 2013/11/27
 47 50  0  0  0  0  0  0  0  0999 V2000
   -8.4541    5.2046   75.6947 N   0  0  0  0  0  0
  -10.1059    5.0282   75.9564 S   0  0  0  0  0  0
  -10.3611    3.5879   75.8942 O   0  0  0  0  0  0
  -10.4096    5.8174   77.1099 O   0  0  0  0  0  0
  -10.7921    5.7871   74.5039 C   0  0  0  0  0  0
  -11.5934    5.0527   73.6349 C   0  0  0  0  0  0
  -12.1232    5.6875   72.5013 C   0  0  0  0  0  0
  -11.8321    7.0339   72.2270 C   0  0  0  0  0  0
  -12.3335    7.7005   70.9619 C   0  0  0  0  0  0
  -11.6268    7.4007   69.6514 C   0  0  0  0  0  0
  -11.7868    6.1645   69.0155 C   0  0  0  0  0  0
  -11.3452    5.9863   67.7054 C   0  0  0  0  0  0
  -10.7631    7.0457   66.9992 C   0  0  0  0  0  0
  -10.5758    8.2890   67.6040 C   0  0  0  0  0  0
  -10.0841    9.4370   66.9181 N   0  0  0  0  0  0
   -9.6960    9.5156   65.5874 C   0  0  0  0  0  0
   -9.6508    8.5663   64.8043 O   0  0  0  0  0  0
   -9.4355   10.9263   65.0296 C   0  0  0  0  0  0
   -8.2948   10.8107   63.9677 C   0  0  0  0  0  0
   -8.7660   10.4994   62.2163 S   0  0  0  0  0  0
  -10.6858   11.7303   64.6597 C   0  0  0  0  0  0
  -11.6470   11.1448   63.8211 C   0  0  0  0  0  0
  -12.8614   11.6521   63.5225 N   0  0  0  0  0  0
  -13.1483   12.8451   64.0417 C   0  0  0  0  0  0
  -12.2369   13.5812   64.7692 C   0  0  0  0  0  0
  -10.9701   13.0518   65.0893 C   0  0  0  0  0  0
   -9.9988   14.0012   65.7867 C   0  0  0  0  0  0
   -9.7630   15.3570   65.0893 C   0  0  0  0  0  0
   -8.7451   16.1919   65.7095 N   0  0  0  0  0  0
   -9.0636   17.0924   66.7008 C   0  0  0  0  0  0
  -10.2154   17.2485   67.0968 O   0  0  0  0  0  0
   -7.8908   17.9447   67.2059 C   0  0  0  0  0  0
   -7.3733   18.8676   66.0845 C   0  0  0  0  0  0
   -8.2887   20.0735   65.8374 C   0  0  0  0  0  0
   -8.6374   20.8272   67.1209 C   0  0  0  0  0  0
   -7.4786   21.4453   67.6793 O   0  0  0  0  0  0
   -9.2106   19.8811   68.1725 C   0  0  0  0  0  0
   -8.2274   18.7481   68.4696 C   0  0  0  0  0  0
  -10.9747    8.4398   68.9453 C   0  0  0  0  0  0
  -10.9931    7.7362   73.1104 C   0  0  0  0  0  0
  -10.4783    7.1187   74.2481 C   0  0  0  0  0  0
   -8.1841    6.1811   75.7641 H   0  0  0  0  0  0
   -8.2016    4.7588   74.8065 H   0  0  0  0  0  0
  -10.0743   10.2973   67.4564 H   0  0  0  0  0  0
   -7.5285   10.3735   61.7121 H   0  0  0  0  0  0
   -7.7781   15.9284   65.5837 H   0  0  0  0  0  0
   -7.3343   22.2986   67.2369 H   0  0  0  0  0  0
  1  2  1  0  0  0
  1 42  1  0  0  0
  1 43  1  0  0  0
  2  3  2  0  0  0
  2  4  2  0  0  0
  2  5  1  0  0  0
  5  6  2  0  0  0
  5 41  1  0  0  0
  6  7  1  0  0  0
  7  8  2  0  0  0
  8  9  1  0  0  0
  8 40  1  0  0  0
  9 10  1  0  0  0
 10 11  2  0  0  0
 10 39  1  0  0  0
 11 12  1  0  0  0
 12 13  2  0  0  0
 13 14  1  0  0  0
 14 15  1  0  0  0
 14 39  2  0  0  0
 15 16  1  0  0  0
 15 44  1  0  0  0
 16 17  2  0  0  0
 16 18  1  0  0  0
 18 19  1  0  0  0
 18 21  1  0  0  0
 19 20  1  0  0  0
 20 45  1  0  0  0
 21 22  2  0  0  0
 21 26  1  0  0  0
 22 23  1  0  0  0
 23 24  2  0  0  0
 24 25  1  0  0  0
 25 26  2  0  0  0
 26 27  1  0  0  0
 27 28  1  0  0  0
 28 29  1  0  0  0
 29 30  1  0  0  0
 29 46  1  0  0  0
 30 31  2  0  0  0
 30 32  1  0  0  0
 32 33  1  0  0  0
 32 38  1  0  0  0
 33 34  1  0  0  0
 34 35  1  0  0  0
 35 36  1  0  0  0
 35 37  1  0  0  0
 36 47  1  0  0  0
 37 38  1  0  0  0
 40 41  2  0  0  0
M  END
>  <AUTHOR>
    GENERATED BY OPEN BABEL 2.3.2

>  <CHROM.1>
-177.43189138,119.77126915,-76.78639670,73.20437382,-1.23615754,147.10876349
90.27038724,-51.63375929,-175.46634435,122.79267847,-174.76094036,-89.72812311
65.06981485,83.61798895,-10.11113023,11.09038327,68.40668881,-2.11398027
-1.34805538,-1.14601706

>  <COMPND>
    UNNAMED

>  <MASTER>
        0    0    0    0    0    0    0    0   77    0   77    0

>  <Name>
ligands/mol8.pdb

>  <RI>
1.30655e+07

>  <Rbt.Current_Directory>
/home/rodrigo/Desktop/Rodrigo/Proyectos/test_OCONDOR/OCONDOR

>  <Rbt.Executable>
rbdock ($Id: //depot/dev/client3/rdock/2013.1/src/exe/rbdock.cxx#4 $)

>  <Rbt.Library>
libRbt.so (2013.1, Build901 2013/11/27)

>  <Rbt.Parameter_File>
dock.prm

>  <Rbt.Receptor>
rdock.prm

>  <SCORE>
-17.3929

>  <SCORE.INTER>
-16.576

>  <SCORE.INTER.CONST>
1

>  <SCORE.INTER.POLAR>
-0.90927

>  <SCORE.INTER.REPUL>
0

>  <SCORE.INTER.ROT>
13

>  <SCORE.INTER.VDW>
-31.8844

>  <SCORE.INTER.norm>
-0.404292

>  <SCORE.INTRA>
-0.816939

>  <SCORE.INTRA.DIHEDRAL>
-2.04454

>  <SCORE.INTRA.DIHEDRAL.0>
15.0264

>  <SCORE.INTRA.POLAR>
0

>  <SCORE.INTRA.POLAR.0>
0

>  <SCORE.INTRA.REPUL>
0

>  <SCORE.INTRA.REPUL.0>
0

>  <SCORE.INTRA.VDW>
0.205329

>  <SCORE.INTRA.VDW.0>
-4.74907

>  <SCORE.INTRA.norm>
-0.0199253

>  <SCORE.RESTR>
0

>  <SCORE.RESTR.CAVITY>
0

>  <SCORE.RESTR.norm>
0

>  <SCORE.SYSTEM>
0

>  <SCORE.SYSTEM.CONST>
0

>  <SCORE.SYSTEM.DIHEDRAL>
0

>  <SCORE.SYSTEM.norm>
0

>  <SCORE.heavy>
41

>  <SCORE.norm>
-0.424217

$$$$
ligands/mol8.pdb
  rDOCK(R)          3D
libRbt.so/2013.1/901 2013/11/27
 47 50  0  0  0  0  0  0  0  0999 V2000
  -11.7019   11.6777   64.4883 N   0  0  0  0  0  0
  -10.4832   12.7997   64.7778 S   0  0  0  0  0  0
   -9.3008   12.0119   65.1311 O   0  0  0  0  0  0
  -10.5064   13.7030   63.6691 O   0  0  0  0  0  0
  -11.0749   13.6176   66.2397 C   0  0  0  0  0  0
  -10.7090   14.9327   66.5105 C   0  0  0  0  0  0
  -11.2012   15.5481   67.6713 C   0  0  0  0  0  0
  -12.0280   14.8464   68.5640 C   0  0  0  0  0  0
  -12.4944   15.4788   69.8596 C   0  0  0  0  0  0
  -13.1248   14.5905   70.9182 C   0  0  0  0  0  0
  -14.3694   14.9076   71.4737 C   0  0  0  0  0  0
  -15.0514   13.9713   72.2492 C   0  0  0  0  0  0
  -14.5165   12.6948   72.4593 C   0  0  0  0  0  0
  -13.2727   12.3464   71.9319 C   0  0  0  0  0  0
  -12.7133   11.0389   72.0202 N   0  0  0  0  0  0
  -13.4014    9.8406   72.1543 C   0  0  0  0  0  0
  -14.6205    9.7341   72.2918 O   0  0  0  0  0  0
  -12.5778    8.5519   71.9804 C   0  0  0  0  0  0
  -13.4585    7.5324   71.1884 C   0  0  0  0  0  0
  -14.9579    6.8550   72.0128 S   0  0  0  0  0  0
  -11.1271    8.7522   71.5315 C   0  0  0  0  0  0
  -10.8746    9.1817   70.2194 C   0  0  0  0  0  0
   -9.6771    9.5466   69.7152 N   0  0  0  0  0  0
   -8.6329    9.4424   70.5359 C   0  0  0  0  0  0
   -8.7299    8.9065   71.8029 C   0  0  0  0  0  0
   -9.9799    8.5309   72.3358 C   0  0  0  0  0  0
   -9.9523    7.8332   73.6936 C   0  0  0  0  0  0
   -8.7943    6.8386   73.9174 C   0  0  0  0  0  0
   -8.6080    5.8702   72.8471 N   0  0  0  0  0  0
   -9.4944    4.8344   72.6561 C   0  0  0  0  0  0
  -10.4694    4.6658   73.3832 O   0  0  0  0  0  0
   -9.1231    3.8609   71.5285 C   0  0  0  0  0  0
   -7.7173    3.2738   71.7647 C   0  0  0  0  0  0
   -7.6996    2.1938   72.8541 C   0  0  0  0  0  0
   -8.7695    1.1220   72.6452 C   0  0  0  0  0  0
   -8.5034    0.3594   71.4686 O   0  0  0  0  0  0
  -10.1510    1.7515   72.4873 C   0  0  0  0  0  0
  -10.1590    2.7466   71.3262 C   0  0  0  0  0  0
  -12.5686   13.3193   71.1979 C   0  0  0  0  0  0
  -12.3516   13.5089   68.2744 C   0  0  0  0  0  0
  -11.8823   12.8965   67.1144 C   0  0  0  0  0  0
  -11.8769   11.1189   65.3180 H   0  0  0  0  0  0
  -11.4686   11.1311   63.6527 H   0  0  0  0  0  0
  -11.7052   10.9866   71.9160 H   0  0  0  0  0  0
  -14.3794    6.4728   73.1621 H   0  0  0  0  0  0
   -7.9699    6.1085   72.1012 H   0  0  0  0  0  0
   -8.4758    0.9602   70.7051 H   0  0  0  0  0  0
  1  2  1  0  0  0
  1 42  1  0  0  0
  1 43  1  0  0  0
  2  3  2  0  0  0
  2  4  2  0  0  0
  2  5  1  0  0  0
  5  6  2  0  0  0
  5 41  1  0  0  0
  6  7  1  0  0  0
  7  8  2  0  0  0
  8  9  1  0  0  0
  8 40  1  0  0  0
  9 10  1  0  0  0
 10 11  2  0  0  0
 10 39  1  0  0  0
 11 12  1  0  0  0
 12 13  2  0  0  0
 13 14  1  0  0  0
 14 15  1  0  0  0
 14 39  2  0  0  0
 15 16  1  0  0  0
 15 44  1  0  0  0
 16 17  2  0  0  0
 16 18  1  0  0  0
 18 19  1  0  0  0
 18 21  1  0  0  0
 19 20  1  0  0  0
 20 45  1  0  0  0
 21 22  2  0  0  0
 21 26  1  0  0  0
 22 23  1  0  0  0
 23 24  2  0  0  0
 24 25  1  0  0  0
 25 26  2  0  0  0
 26 27  1  0  0  0
 27 28  1  0  0  0
 28 29  1  0  0  0
 29 30  1  0  0  0
 29 46  1  0  0  0
 30 31  2  0  0  0
 30 32  1  0  0  0
 32 33  1  0  0  0
 32 38  1  0  0  0
 33 34  1  0  0  0
 34 35  1  0  0  0
 35 36  1  0  0  0
 35 37  1  0  0  0
 36 47  1  0  0  0
 37 38  1  0  0  0
 40 41  2  0  0  0
M  END
>  <AUTHOR>
    GENERATED BY OPEN BABEL 2.3.2

>  <CHROM.1>
60.20667094,-152.74158453,-166.85426868,-127.80667362,25.53634916,-140.54849561
-67.54173298,-70.56428922,-50.46044565,137.10525748,-49.50318755,-72.28422641
56.39611446,-58.57155240,-11.20452591,9.32781626,70.34441817,-1.89540402
-0.87289980,2.45228601

>  <COMPND>
    UNNAMED

>  <MASTER>
        0    0    0    0    0    0    0    0   77    0   77    0

>  <Name>
ligands/mol8.pdb

>  <RI>
1.30655e+07

>  <Rbt.Current_Directory>
/home/rodrigo/Desktop/Rodrigo/Proyectos/test_OCONDOR/OCONDOR

>  <Rbt.Executable>
rbdock ($Id: //depot/dev/client3/rdock/2013.1/src/exe/rbdock.cxx#4 $)

>  <Rbt.Library>
libRbt.so (2013.1, Build901 2013/11/27)

>  <Rbt.Parameter_File>
dock.prm

>  <Rbt.Receptor>
rdock.prm

>  <SCORE>
-12.9368

>  <SCORE.INTER>
-13.6673

>  <SCORE.INTER.CONST>
1

>  <SCORE.INTER.POLAR>
-0.916515

>  <SCORE.INTER.REPUL>
0.288969

>  <SCORE.INTER.ROT>
13

>  <SCORE.INTER.VDW>
-30.396

>  <SCORE.INTER.norm>
-0.333349

>  <SCORE.INTRA>
0.730494

>  <SCORE.INTRA.DIHEDRAL>
-4.40434

>  <SCORE.INTRA.DIHEDRAL.0>
15.0264

>  <SCORE.INTRA.POLAR>
0

>  <SCORE.INTRA.POLAR.0>
0

>  <SCORE.INTRA.REPUL>
0

>  <SCORE.INTRA.REPUL.0>
0

>  <SCORE.INTRA.VDW>
2.93267

>  <SCORE.INTRA.VDW.0>
-4.74907

>  <SCORE.INTRA.norm>
0.0178169

>  <SCORE.RESTR>
0

>  <SCORE.RESTR.CAVITY>
0

>  <SCORE.RESTR.norm>
0

>  <SCORE.SYSTEM>
0

>  <SCORE.SYSTEM.CONST>
0

>  <SCORE.SYSTEM.DIHEDRAL>
0

>  <SCORE.SYSTEM.norm>
0

>  <SCORE.heavy>
41

>  <SCORE.norm>
-0.315532

$$$$
ligands/mol8.pdb
  rDOCK(R)          3D
libRbt.so/2013.1/901 2013/11/27
 47 50  0  0  0  0  0  0  0  0999 V2000
   -9.4174    3.2580   70.2215 N   0  0  0  0  0  0
   -8.9698    4.6040   71.1248 S   0  0  0  0  0  0
   -8.7901    4.1157   72.4933 O   0  0  0  0  0  0
   -7.9230    5.2432   70.3890 O   0  0  0  0  0  0
  -10.4442    5.5936   71.0668 C   0  0  0  0  0  0
  -11.1470    5.7447   69.8752 C   0  0  0  0  0  0
  -12.3107    6.5284   69.8691 C   0  0  0  0  0  0
  -12.7504    7.1749   71.0360 C   0  0  0  0  0  0
  -13.9591    8.0887   71.0157 C   0  0  0  0  0  0
  -13.7407    9.5880   71.1219 C   0  0  0  0  0  0
  -13.9332   10.2576   72.3355 C   0  0  0  0  0  0
  -13.4946   11.5718   72.4896 C   0  0  0  0  0  0
  -12.8320   12.2290   71.4461 C   0  0  0  0  0  0
  -12.6328   11.5981   70.2178 C   0  0  0  0  0  0
  -11.8818   12.1663   69.1485 N   0  0  0  0  0  0
  -11.6566   11.6118   67.8957 C   0  0  0  0  0  0
  -12.0207   10.4904   67.5404 O   0  0  0  0  0  0
  -11.0208   12.5342   66.8402 C   0  0  0  0  0  0
   -9.4865   12.5966   67.1308 C   0  0  0  0  0  0
   -8.5129   11.0405   66.9988 S   0  0  0  0  0  0
  -11.4717   12.2928   65.3963 C   0  0  0  0  0  0
  -11.0475   11.1285   64.7373 C   0  0  0  0  0  0
  -11.4699   10.6947   63.5312 N   0  0  0  0  0  0
  -12.3388   11.4768   62.8922 C   0  0  0  0  0  0
  -12.7277   12.7092   63.3733 C   0  0  0  0  0  0
  -12.2945   13.1627   64.6359 C   0  0  0  0  0  0
  -12.6830   14.5911   65.0096 C   0  0  0  0  0  0
  -11.7277   15.6997   64.5208 C   0  0  0  0  0  0
  -10.3444   15.5417   64.9443 N   0  0  0  0  0  0
   -9.6321   16.5948   65.4719 C   0  0  0  0  0  0
  -10.1175   17.7159   65.5952 O   0  0  0  0  0  0
   -8.1665   16.2847   65.8079 C   0  0  0  0  0  0
   -7.3417   17.5856   65.8727 C   0  0  0  0  0  0
   -7.5854   18.3803   67.1621 C   0  0  0  0  0  0
   -7.4537   17.5236   68.4214 C   0  0  0  0  0  0
   -6.1087   17.0802   68.5973 O   0  0  0  0  0  0
   -8.3428   16.2859   68.3366 C   0  0  0  0  0  0
   -8.0017   15.4629   67.0937 C   0  0  0  0  0  0
  -13.1300   10.2913   70.0561 C   0  0  0  0  0  0
  -11.9979    7.0255   72.2145 C   0  0  0  0  0  0
  -10.8517    6.2338   72.2334 C   0  0  0  0  0  0
   -8.7184    2.5258   70.3017 H   0  0  0  0  0  0
   -9.6175    3.5470   69.2582 H   0  0  0  0  0  0
  -11.5255   13.1021   69.3132 H   0  0  0  0  0  0
   -7.3220   11.5363   67.3696 H   0  0  0  0  0  0
   -9.9966   14.6029   65.0788 H   0  0  0  0  0  0
   -5.8214   16.6220   67.7897 H   0  0  0  0  0  0
  1  2  1  0  0  0
  1 42  1  0  0  0
  1 43  1  0  0  0
  2  3  2  0  0  0
  2  4  2  0  0  0
  2  5  1  0  0  0
  5  6  2  0  0  0
  5 41  1  0  0  0
  6  7  1  0  0  0
  7  8  2  0  0  0
  8  9  1  0  0  0
  8 40  1  0  0  0
  9 10  1  0  0  0
 10 11  2  0  0  0
 10 39  1  0  0  0
 11 12  1  0  0  0
 12 13  2  0  0  0
 13 14  1  0  0  0
 14 15  1  0  0  0
 14 39  2  0  0  0
 15 16  1  0  0  0
 15 44  1  0  0  0
 16 17  2  0  0  0
 16 18  1  0  0  0
 18 19  1  0  0  0
 18 21  1  0  0  0
 19 20  1  0  0  0
 20 45  1  0  0  0
 21 22  2  0  0  0
 21 26  1  0  0  0
 22 23  1  0  0  0
 23 24  2  0  0  0
 24 25  1  0  0  0
 25 26  2  0  0  0
 26 27  1  0  0  0
 27 28  1  0  0  0
 28 29  1  0  0  0
 29 30  1  0  0  0
 29 46  1  0  0  0
 30 31  2  0  0  0
 30 32  1  0  0  0
 32 33  1  0  0  0
 32 38  1  0  0  0
 33 34  1  0  0  0
 34 35  1  0  0  0
 35 36  1  0  0  0
 35 37  1  0  0  0
 36 47  1  0  0  0
 37 38  1  0  0  0
 40 41  2  0  0  0
M  END
>  <AUTHOR>
    GENERATED BY OPEN BABEL 2.3.2

>  <CHROM.1>
-56.87501379,-43.37396594,-107.01478522,-100.75469122,-178.97077731,79.23631213
62.99662287,-70.87632159,-177.64456011,89.47483692,-56.14205106,-133.19981606
158.64190154,-54.77908905,-10.55451310,11.24727009,68.24575959,-1.71640152
-0.64549477,-0.56261964

>  <COMPND>
    UNNAMED

>  <MASTER>
        0    0    0    0    0    0    0    0   77    0   77    0

>  <Name>
ligands/mol8.pdb

>  <RI>
1.30655e+07

>  <Rbt.Current_Directory>
/home/rodrigo/Desktop/Rodrigo/Proyectos/test_OCONDOR/OCONDOR

>  <Rbt.Executable>
rbdock ($Id: //depot/dev/client3/rdock/2013.1/src/exe/rbdock.cxx#4 $)

>  <Rbt.Library>
libRbt.so (2013.1, Build901 2013/11/27)

>  <Rbt.Parameter_File>
dock.prm

>  <Rbt.Receptor>
rdock.prm

>  <SCORE>
-17.2949

>  <SCORE.INTER>
-13.6318

>  <SCORE.INTER.CONST>
1

>  <SCORE.INTER.POLAR>
0

>  <SCORE.INTER.REPUL>
0

>  <SCORE.INTER.ROT>
13

>  <SCORE.INTER.VDW>
-32.0318

>  <SCORE.INTER.norm>
-0.332484

>  <SCORE.INTRA>
-3.66311

>  <SCORE.INTRA.DIHEDRAL>
-6.17957

>  <SCORE.INTRA.DIHEDRAL.0>
15.0264

>  <SCORE.INTRA.POLAR>
0

>  <SCORE.INTRA.POLAR.0>
0

>  <SCORE.INTRA.REPUL>
0

>  <SCORE.INTRA.REPUL.0>
0

>  <SCORE.INTRA.VDW>
-0.573322

>  <SCORE.INTRA.VDW.0>
-4.74907

>  <SCORE.INTRA.norm>
-0.089344

>  <SCORE.RESTR>
0

>  <SCORE.RESTR.CAVITY>
0

>  <SCORE.RESTR.norm>
0

>  <SCORE.SYSTEM>
0

>  <SCORE.SYSTEM.CONST>
0

>  <SCORE.SYSTEM.DIHEDRAL>
0

>  <SCORE.SYSTEM.norm>
0

>  <SCORE.heavy>
41

>  <SCORE.norm>
-0.421828

$$$$
ligands/mol8.pdb
  rDOCK(R)          3D
libRbt.so/2013.1/901 2013/11/27
 47 50  0  0  0  0  0  0  0  0999 V2000
  -10.3586    5.2694   77.7162 N   0  0  0  0  0  0
   -9.7832    4.3807   76.4096 S   0  0  0  0  0  0
   -8.3303    4.5613   76.4220 O   0  0  0  0  0  0
  -10.4025    3.0949   76.5031 O   0  0  0  0  0  0
  -10.4526    5.2781   75.0302 C   0  0  0  0  0  0
  -11.1774    4.6178   74.0427 C   0  0  0  0  0  0
  -11.6965    5.3607   72.9715 C   0  0  0  0  0  0
  -11.4695    6.7435   72.8764 C   0  0  0  0  0  0
  -11.9568    7.5355   71.6799 C   0  0  0  0  0  0
  -11.3764    7.2203   70.3123 C   0  0  0  0  0  0
  -12.0486    6.3726   69.4247 C   0  0  0  0  0  0
  -11.6446    6.2868   68.0934 C   0  0  0  0  0  0
  -10.5824    7.0659   67.6194 C   0  0  0  0  0  0
   -9.8804    7.9132   68.4772 C   0  0  0  0  0  0
   -8.8577    8.8065   68.0456 N   0  0  0  0  0  0
   -8.5651    9.1771   66.7401 C   0  0  0  0  0  0
   -9.1119    8.7234   65.7343 O   0  0  0  0  0  0
   -7.5749   10.3419   66.5618 C   0  0  0  0  0  0
   -6.8232   10.1195   65.2098 C   0  0  0  0  0  0
   -5.4003   11.2178   64.8156 S   0  0  0  0  0  0
   -8.1380   11.7364   66.8524 C   0  0  0  0  0  0
   -7.2769   12.7275   67.3482 C   0  0  0  0  0  0
   -7.5739   14.0336   67.5137 N   0  0  0  0  0  0
   -8.8206   14.3989   67.2183 C   0  0  0  0  0  0
   -9.7961   13.4956   66.8519 C   0  0  0  0  0  0
   -9.4881   12.1318   66.6710 C   0  0  0  0  0  0
  -10.6685   11.2049   66.3906 C   0  0  0  0  0  0
  -11.6226   10.9503   67.5761 C   0  0  0  0  0  0
  -12.3078   12.1349   68.0714 N   0  0  0  0  0  0
  -12.0102   12.6718   69.3035 C   0  0  0  0  0  0
  -11.1712   12.1732   70.0485 O   0  0  0  0  0  0
  -12.8658   13.8801   69.7097 C   0  0  0  0  0  0
  -13.0000   13.9540   71.2438 C   0  0  0  0  0  0
  -11.7316   14.4815   71.9265 C   0  0  0  0  0  0
  -11.2204   15.7819   71.3062 C   0  0  0  0  0  0
  -12.1416   16.8490   71.5288 O   0  0  0  0  0  0
  -11.0378   15.6339   69.7981 C   0  0  0  0  0  0
  -12.3490   15.2069   69.1370 C   0  0  0  0  0  0
  -10.2621    7.9488   69.8314 C   0  0  0  0  0  0
  -10.7059    7.3722   73.8759 C   0  0  0  0  0  0
  -10.2029    6.6451   74.9526 C   0  0  0  0  0  0
  -10.0293    4.8721   78.5908 H   0  0  0  0  0  0
  -11.3783    5.3522   77.6476 H   0  0  0  0  0  0
   -8.3296    9.2572   68.7859 H   0  0  0  0  0  0
   -4.4936   10.6404   65.6194 H   0  0  0  0  0  0
  -12.8178   12.6978   67.4055 H   0  0  0  0  0  0
  -11.8134   17.6455   71.0788 H   0  0  0  0  0  0
  1  2  1  0  0  0
  1 42  1  0  0  0
  1 43  1  0  0  0
  2  3  2  0  0  0
  2  4  2  0  0  0
  2  5  1  0  0  0
  5  6  2  0  0  0
  5 41  1  0  0  0
  6  7  1  0  0  0
  7  8  2  0  0  0
  8  9  1  0  0  0
  8 40  1  0  0  0
  9 10  1  0  0  0
 10 11  2  0  0  0
 10 39  1  0  0  0
 11 12  1  0  0  0
 12 13  2  0  0  0
 13 14  1  0  0  0
 14 15  1  0  0  0
 14 39  2  0  0  0
 15 16  1  0  0  0
 15 44  1  0  0  0
 16 17  2  0  0  0
 16 18  1  0  0  0
 18 19  1  0  0  0
 18 21  1  0  0  0
 19 20  1  0  0  0
 20 45  1  0  0  0
 21 22  2  0  0  0
 21 26  1  0  0  0
 22 23  1  0  0  0
 23 24  2  0  0  0
 24 25  1  0  0  0
 25 26  2  0  0  0
 26 27  1  0  0  0
 27 28  1  0  0  0
 28 29  1  0  0  0
 29 30  1  0  0  0
 29 46  1  0  0  0
 30 31  2  0  0  0
 30 32  1  0  0  0
 32 33  1  0  0  0
 32 38  1  0  0  0
 33 34  1  0  0  0
 34 35  1  0  0  0
 35 36  1  0  0  0
 35 37  1  0  0  0
 36 47  1  0  0  0
 37 38  1  0  0  0
 40 41  2  0  0  0
M  END
>  <AUTHOR>
    GENERATED BY OPEN BABEL 2.3.2

>  <CHROM.1>
-65.44001825,-127.97193960,-64.03184713,97.05088164,13.23292654,150.45395909
-171.62049110,149.40821709,76.97320141,104.86861118,62.63879467,-110.52914849
151.01931032,-176.70084862,-10.12113097,9.78387350,70.14247296,1.75051390
-1.04502467,2.52975174

>  <COMPND>
    UNNAMED

>  <MASTER>
        0    0    0    0    0    0    0    0   77    0   77    0

>  <Name>
ligands/mol8.pdb

>  <RI>
1.30655e+07

>  <Rbt.Current_Directory>
/home/rodrigo/Desktop/Rodrigo/Proyectos/test_OCONDOR/OCONDOR

>  <Rbt.Executable>
rbdock ($Id: //depot/dev/client3/rdock/2013.1/src/exe/rbdock.cxx#4 $)

>  <Rbt.Library>
libRbt.so (2013.1, Build901 2013/11/27)

>  <Rbt.Parameter_File>
dock.prm

>  <Rbt.Receptor>
rdock.prm

>  <SCORE>
-15.7976

>  <SCORE.INTER>
-11.9101

>  <SCORE.INTER.CONST>
1

>  <SCORE.INTER.POLAR>
-1.03876

>  <SCORE.INTER.REPUL>
0

>  <SCORE.INTER.ROT>
13

>  <SCORE.INTER.VDW>
-26.7783

>  <SCORE.INTER.norm>
-0.29049

>  <SCORE.INTRA>
-3.88749

>  <SCORE.INTRA.DIHEDRAL>
-4.51501

>  <SCORE.INTRA.DIHEDRAL.0>
15.0264

>  <SCORE.INTRA.POLAR>
0

>  <SCORE.INTRA.POLAR.0>
0

>  <SCORE.INTRA.REPUL>
0

>  <SCORE.INTRA.REPUL.0>
0

>  <SCORE.INTRA.VDW>
-1.62998

>  <SCORE.INTRA.VDW.0>
-4.74907

>  <SCORE.INTRA.norm>
-0.0948168

>  <SCORE.RESTR>
0

>  <SCORE.RESTR.CAVITY>
0

>  <SCORE.RESTR.norm>
0

>  <SCORE.SYSTEM>
0

>  <SCORE.SYSTEM.CONST>
0

>  <SCORE.SYSTEM.DIHEDRAL>
0

>  <SCORE.SYSTEM.norm>
0

>  <SCORE.heavy>
41

>  <SCORE.norm>
-0.385307

$$$$
ligands/mol8.pdb
  rDOCK(R)          3D
libRbt.so/2013.1/901 2013/11/27
 47 50  0  0  0  0  0  0  0  0999 V2000
   -7.9372   19.4855   68.8136 N   0  0  0  0  0  0
   -7.1850   18.0766   68.2868 S   0  0  0  0  0  0
   -6.2074   18.5053   67.2848 O   0  0  0  0  0  0
   -6.8164   17.3600   69.4684 O   0  0  0  0  0  0
   -8.5134   17.2376   67.4576 C   0  0  0  0  0  0
   -9.6044   16.7586   68.1768 C   0  0  0  0  0  0
  -10.6378   16.1068   67.4870 C   0  0  0  0  0  0
  -10.5670   15.9132   66.0977 C   0  0  0  0  0  0
  -11.6400   15.1377   65.3604 C   0  0  0  0  0  0
  -11.3366   13.7176   64.9155 C   0  0  0  0  0  0
  -10.5491   13.4718   63.7852 C   0  0  0  0  0  0
  -10.0700   12.1881   63.5288 C   0  0  0  0  0  0
  -10.3446   11.1356   64.4101 C   0  0  0  0  0  0
  -11.1364   11.3397   65.5406 C   0  0  0  0  0  0
  -11.3741   10.3433   66.5311 N   0  0  0  0  0  0
  -10.8886    9.0427   66.5445 C   0  0  0  0  0  0
  -10.2245    8.5240   65.6464 O   0  0  0  0  0  0
  -11.0900    8.2472   67.8467 C   0  0  0  0  0  0
  -11.4709    6.7840   67.4517 C   0  0  0  0  0  0
  -10.2592    5.8047   66.4723 S   0  0  0  0  0  0
  -10.0111    8.4477   68.9153 C   0  0  0  0  0  0
   -8.9467    7.5356   68.9861 C   0  0  0  0  0  0
   -7.8474    7.6499   69.7607 N   0  0  0  0  0  0
   -7.7983    8.7104   70.5655 C   0  0  0  0  0  0
   -8.8412    9.6046   70.6863 C   0  0  0  0  0  0
   -9.9879    9.4929   69.8740 C   0  0  0  0  0  0
  -11.1298   10.4584   70.1821 C   0  0  0  0  0  0
  -11.8174   10.2749   71.5510 C   0  0  0  0  0  0
  -12.1889    8.9037   71.8667 N   0  0  0  0  0  0
  -11.4013    8.1164   72.6758 C   0  0  0  0  0  0
  -10.3454    8.5212   73.1543 O   0  0  0  0  0  0
  -11.8950    6.6742   72.8589 C   0  0  0  0  0  0
  -12.1050    5.9986   71.4891 C   0  0  0  0  0  0
  -10.7871    5.5812   70.8241 C   0  0  0  0  0  0
   -9.8802    4.7775   71.7561 C   0  0  0  0  0  0
  -10.4651    3.5145   72.0716 O   0  0  0  0  0  0
   -9.6472    5.5214   73.0684 C   0  0  0  0  0  0
  -10.9782    5.8304   73.7550 C   0  0  0  0  0  0
  -11.6606   12.6276   65.7584 C   0  0  0  0  0  0
   -9.4350   16.3826   65.4079 C   0  0  0  0  0  0
   -8.4133   17.0473   66.0826 C   0  0  0  0  0  0
   -7.2602   20.1166   69.2314 H   0  0  0  0  0  0
   -8.7221   19.2421   69.4269 H   0  0  0  0  0  0
  -11.9115   10.6468   67.3366 H   0  0  0  0  0  0
  -10.3160    6.5216   65.3390 H   0  0  0  0  0  0
  -13.1433    8.6219   71.6935 H   0  0  0  0  0  0
  -11.3499    3.6634   72.4454 H   0  0  0  0  0  0
  1  2  1  0  0  0
  1 42  1  0  0  0
  1 43  1  0  0  0
  2  3  2  0  0  0
  2  4  2  0  0  0
  2  5  1  0  0  0
  5  6  2  0  0  0
  5 41  1  0  0  0
  6  7  1  0  0  0
  7  8  2  0  0  0
  8  9  1  0  0  0
  8 40  1  0  0  0
  9 10  1  0  0  0
 10 11  2  0  0  0
 10 39  1  0  0  0
 11 12  1  0  0  0
 12 13  2  0  0  0
 13 14  1  0  0  0
 14 15  1  0  0  0
 14 39  2  0  0  0
 15 16  1  0  0  0
 15 44  1  0  0  0
 16 17  2  0  0  0
 16 18  1  0  0  0
 18 19  1  0  0  0
 18 21  1  0  0  0
 19 20  1  0  0  0
 20 45  1  0  0  0
 21 22  2  0  0  0
 21 26  1  0  0  0
 22 23  1  0  0  0
 23 24  2  0  0  0
 24 25  1  0  0  0
 25 26  2  0  0  0
 26 27  1  0  0  0
 27 28  1  0  0  0
 28 29  1  0  0  0
 29 30  1  0  0  0
 29 46  1  0  0  0
 30 31  2  0  0  0
 30 32  1  0  0  0
 32 33  1  0  0  0
 32 38  1  0  0  0
 33 34  1  0  0  0
 34 35  1  0  0  0
 35 36  1  0  0  0
 35 37  1  0  0  0
 36 47  1  0  0  0
 37 38  1  0  0  0
 40 41  2  0  0  0
M  END
>  <AUTHOR>
    GENERATED BY OPEN BABEL 2.3.2

>  <CHROM.1>
-60.83075946,-66.99269406,-103.95093636,-77.59903863,-0.44487217,140.12747106
61.25881036,-95.14306275,-66.99448138,109.86619689,-48.24479558,98.66654818
54.12333272,-55.47190472,-9.97686681,10.93850815,68.58815656,-0.99001158
1.25754188,2.23126289

>  <COMPND>
    UNNAMED

>  <MASTER>
        0    0    0    0    0    0    0    0   77    0   77    0

>  <Name>
ligands/mol8.pdb

>  <RI>
1.30655e+07

>  <Rbt.Current_Directory>
/home/rodrigo/Desktop/Rodrigo/Proyectos/test_OCONDOR/OCONDOR

>  <Rbt.Executable>
rbdock ($Id: //depot/dev/client3/rdock/2013.1/src/exe/rbdock.cxx#4 $)

>  <Rbt.Library>
libRbt.so (2013.1, Build901 2013/11/27)

>  <Rbt.Parameter_File>
dock.prm

>  <Rbt.Receptor>
rdock.prm

>  <SCORE>
-13.3384

>  <SCORE.INTER>
-8.38226

>  <SCORE.INTER.CONST>
1

>  <SCORE.INTER.POLAR>
-0.679122

>  <SCORE.INTER.REPUL>
0

>  <SCORE.INTER.ROT>
13

>  <SCORE.INTER.VDW>
-24.4732

>  <SCORE.INTER.norm>
-0.204445

>  <SCORE.INTRA>
-4.96261

>  <SCORE.INTRA.DIHEDRAL>
-4.98542

>  <SCORE.INTRA.DIHEDRAL.0>
15.0264

>  <SCORE.INTRA.POLAR>
-0.236537

>  <SCORE.INTRA.POLAR.0>
0

>  <SCORE.INTRA.REPUL>
0

>  <SCORE.INTRA.REPUL.0>
0

>  <SCORE.INTRA.VDW>
-1.66567

>  <SCORE.INTRA.VDW.0>
-4.74907

>  <SCORE.INTRA.norm>
-0.121039

>  <SCORE.RESTR>
0.00646462

>  <SCORE.RESTR.CAVITY>
0.00646462

>  <SCORE.RESTR.norm>
0.000157674

>  <SCORE.SYSTEM>
0

>  <SCORE.SYSTEM.CONST>
0

>  <SCORE.SYSTEM.DIHEDRAL>
0

>  <SCORE.SYSTEM.norm>
0

>  <SCORE.heavy>
41

>  <SCORE.norm>
-0.325327

$$$$
ligands/mol8.pdb
  rDOCK(R)          3D
libRbt.so/2013.1/901 2013/11/27
 47 50  0  0  0  0  0  0  0  0999 V2000
  -10.7289   15.2178   70.8469 N   0  0  0  0  0  0
  -10.3774   16.1221   69.4733 S   0  0  0  0  0  0
  -11.4764   17.0806   69.3432 O   0  0  0  0  0  0
   -9.0117   16.5261   69.6052 O   0  0  0  0  0  0
  -10.5298   14.9090   68.1844 C   0  0  0  0  0  0
  -11.7370   14.7393   67.5133 C   0  0  0  0  0  0
  -11.8179   13.7758   66.4965 C   0  0  0  0  0  0
  -10.7111   12.9735   66.1740 C   0  0  0  0  0  0
  -10.8169   11.8760   65.1346 C   0  0  0  0  0  0
  -10.5640   10.4408   65.5623 C   0  0  0  0  0  0
   -9.8854    9.5502   64.7229 C   0  0  0  0  0  0
   -9.4393    8.3241   65.2138 C   0  0  0  0  0  0
   -9.6377    7.9790   66.5559 C   0  0  0  0  0  0
  -10.3207    8.8357   67.4197 C   0  0  0  0  0  0
  -10.4719    8.5966   68.8162 N   0  0  0  0  0  0
  -10.0382    7.4862   69.5278 C   0  0  0  0  0  0
   -9.5103    6.4891   69.0343 O   0  0  0  0  0  0
  -10.1073    7.5834   71.0624 C   0  0  0  0  0  0
  -11.5860    7.9099   71.4484 C   0  0  0  0  0  0
  -12.8994    6.7267   70.9369 S   0  0  0  0  0  0
   -9.3931    6.4644   71.8267 C   0  0  0  0  0  0
   -9.8604    5.1474   71.6975 C   0  0  0  0  0  0
   -9.2619    4.0370   72.1774 N   0  0  0  0  0  0
   -8.1447    4.2233   72.8788 C   0  0  0  0  0  0
   -7.6585    5.4758   73.1896 C   0  0  0  0  0  0
   -8.2767    6.6377   72.6843 C   0  0  0  0  0  0
   -7.7313    7.9689   73.1958 C   0  0  0  0  0  0
   -8.2614    8.4321   74.5687 C   0  0  0  0  0  0
   -7.9844    7.5193   75.6678 N   0  0  0  0  0  0
   -8.8335    6.4774   75.9648 C   0  0  0  0  0  0
   -9.8679    6.2768   75.3343 O   0  0  0  0  0  0
   -8.4372    5.6459   77.1931 C   0  0  0  0  0  0
   -8.9021    6.3420   78.4878 C   0  0  0  0  0  0
  -10.4088    6.1931   78.7344 C   0  0  0  0  0  0
  -10.8879    4.7453   78.6270 C   0  0  0  0  0  0
  -10.3368    3.9475   79.6740 O   0  0  0  0  0  0
  -10.4626    4.1255   77.2986 C   0  0  0  0  0  0
   -8.9442    4.1985   77.1328 C   0  0  0  0  0  0
  -10.8152   10.0458   66.8981 C   0  0  0  0  0  0
   -9.5165   13.1509   66.8945 C   0  0  0  0  0  0
   -9.4223   14.1181   67.8927 C   0  0  0  0  0  0
  -10.8608   15.8251   71.6499 H   0  0  0  0  0  0
  -10.0079   14.4999   70.9743 H   0  0  0  0  0  0
  -10.8938    9.3522   69.3461 H   0  0  0  0  0  0
  -12.9781    7.0857   69.6459 H   0  0  0  0  0  0
   -7.0478    7.5068   76.0458 H   0  0  0  0  0  0
  -10.7224    4.2305   80.5201 H   0  0  0  0  0  0
  1  2  1  0  0  0
  1 42  1  0  0  0
  1 43  1  0  0  0
  2  3  2  0  0  0
  2  4  2  0  0  0
  2  5  1  0  0  0
  5  6  2  0  0  0
  5 41  1  0  0  0
  6  7  1  0  0  0
  7  8  2  0  0  0
  8  9  1  0  0  0
  8 40  1  0  0  0
  9 10  1  0  0  0
 10 11  2  0  0  0
 10 39  1  0  0  0
 11 12  1  0  0  0
 12 13  2  0  0  0
 13 14  1  0  0  0
 14 15  1  0  0  0
 14 39  2  0  0  0
 15 16  1  0  0  0
 15 44  1  0  0  0
 16 17  2  0  0  0
 16 18  1  0  0  0
 18 19  1  0  0  0
 18 21  1  0  0  0
 19 20  1  0  0  0
 20 45  1  0  0  0
 21 22  2  0  0  0
 21 26  1  0  0  0
 22 23  1  0  0  0
 23 24  2  0  0  0
 24 25  1  0  0  0
 25 26  2  0  0  0
 26 27  1  0  0  0
 27 28  1  0  0  0
 28 29  1  0  0  0
 29 30  1  0  0  0
 29 46  1  0  0  0
 30 31  2  0  0  0
 30 32  1  0  0  0
 32 33  1  0  0  0
 32 38  1  0  0  0
 33 34  1  0  0  0
 34 35  1  0  0  0
 35 36  1  0  0  0
 35 37  1  0  0  0
 36 47  1  0  0  0
 37 38  1  0  0  0
 40 41  2  0  0  0
M  END
>  <AUTHOR>
    GENERATED BY OPEN BABEL 2.3.2

>  <CHROM.1>
-55.35292053,92.83710975,-118.51933622,-141.86665827,-3.04811287,56.49138057
59.35582181,-64.13472993,-77.36255389,93.65545658,59.97755360,-86.97302080
81.70448888,68.24434301,-9.99716670,9.05661307,71.30100629,-2.94850364,1.48525200
-2.58066943

>  <COMPND>
    UNNAMED

>  <MASTER>
        0    0    0    0    0    0    0    0   77    0   77    0

>  <Name>
ligands/mol8.pdb

>  <RI>
1.30655e+07

>  <Rbt.Current_Directory>
/home/rodrigo/Desktop/Rodrigo/Proyectos/test_OCONDOR/OCONDOR

>  <Rbt.Executable>
rbdock ($Id: //depot/dev/client3/rdock/2013.1/src/exe/rbdock.cxx#4 $)

>  <Rbt.Library>
libRbt.so (2013.1, Build901 2013/11/27)

>  <Rbt.Parameter_File>
dock.prm

>  <Rbt.Receptor>
rdock.prm

>  <SCORE>
-10.2553

>  <SCORE.INTER>
-5.23658

>  <SCORE.INTER.CONST>
1

>  <SCORE.INTER.POLAR>
-1.31369

>  <SCORE.INTER.REPUL>
0

>  <SCORE.INTER.ROT>
13

>  <SCORE.INTER.VDW>
-19.17

>  <SCORE.INTER.norm>
-0.127722

>  <SCORE.INTRA>
-5.01869

>  <SCORE.INTRA.DIHEDRAL>
-6.25746

>  <SCORE.INTRA.DIHEDRAL.0>
15.0264

>  <SCORE.INTRA.POLAR>
0

>  <SCORE.INTRA.POLAR.0>
0

>  <SCORE.INTRA.REPUL>
0

>  <SCORE.INTRA.REPUL.0>
0

>  <SCORE.INTRA.VDW>
-1.88996

>  <SCORE.INTRA.VDW.0>
-4.74907

>  <SCORE.INTRA.norm>
-0.122407

>  <SCORE.RESTR>
0

>  <SCORE.RESTR.CAVITY>
0

>  <SCORE.RESTR.norm>
0

>  <SCORE.SYSTEM>
0

>  <SCORE.SYSTEM.CONST>
0

>  <SCORE.SYSTEM.DIHEDRAL>
0

>  <SCORE.SYSTEM.norm>
0

>  <SCORE.heavy>
41

>  <SCORE.norm>
-0.250129

$$$$
ligands/mol8.pdb
  rDOCK(R)          3D
libRbt.so/2013.1/901 2013/11/27
 47 50  0  0  0  0  0  0  0  0999 V2000
   -7.7058   11.5031   76.3547 N   0  0  0  0  0  0
   -6.1420   11.2218   76.9055 S   0  0  0  0  0  0
   -5.2770   11.4003   75.7378 O   0  0  0  0  0  0
   -5.9982   11.9968   78.0990 O   0  0  0  0  0  0
   -6.1986    9.4923   77.3079 C   0  0  0  0  0  0
   -5.1134    8.8740   77.9216 C   0  0  0  0  0  0
   -5.1969    7.5078   78.2304 C   0  0  0  0  0  0
   -6.3427    6.7639   77.9042 C   0  0  0  0  0  0
   -6.4054    5.2717   78.1602 C   0  0  0  0  0  0
   -6.4710    4.3305   76.9700 C   0  0  0  0  0  0
   -6.2686    2.9551   77.1299 C   0  0  0  0  0  0
   -6.5746    2.0750   76.0930 C   0  0  0  0  0  0
   -7.1135    2.5495   74.8913 C   0  0  0  0  0  0
   -7.3177    3.9150   74.6905 C   0  0  0  0  0  0
   -7.9526    4.4595   73.5369 N   0  0  0  0  0  0
   -7.8979    5.7735   73.0923 C   0  0  0  0  0  0
   -7.3388    6.6991   73.6814 O   0  0  0  0  0  0
   -8.4682    6.0486   71.6893 C   0  0  0  0  0  0
   -7.7425    5.0920   70.6891 C   0  0  0  0  0  0
   -5.9325    5.3087   70.4371 S   0  0  0  0  0  0
   -9.9940    6.1547   71.6070 C   0  0  0  0  0  0
  -10.7304    6.2978   72.7932 C   0  0  0  0  0  0
  -12.0526    6.5521   72.8865 N   0  0  0  0  0  0
  -12.7231    6.6277   71.7377 C   0  0  0  0  0  0
  -12.1396    6.3716   70.5147 C   0  0  0  0  0  0
  -10.7576    6.1127   70.4124 C   0  0  0  0  0  0
  -10.2457    5.7181   69.0292 C   0  0  0  0  0  0
  -11.0317    6.2895   67.8308 C   0  0  0  0  0  0
  -11.3403    7.7085   67.9261 N   0  0  0  0  0  0
  -10.7115    8.6337   67.1239 C   0  0  0  0  0  0
   -9.8530    8.3140   66.3063 O   0  0  0  0  0  0
  -11.0978   10.0953   67.3915 C   0  0  0  0  0  0
  -11.0751   10.3903   68.9045 C   0  0  0  0  0  0
   -9.6530   10.5481   69.4579 C   0  0  0  0  0  0
   -8.8041   11.5249   68.6439 C   0  0  0  0  0  0
   -9.3126   12.8539   68.7520 O   0  0  0  0  0  0
   -8.8028   11.1476   67.1650 C   0  0  0  0  0  0
  -10.2312   11.1006   66.6207 C   0  0  0  0  0  0
   -6.9525    4.7981   75.7238 C   0  0  0  0  0  0
   -7.4076    7.4145   77.2560 C   0  0  0  0  0  0
   -7.3402    8.7748   76.9628 C   0  0  0  0  0  0
   -8.3873   11.1443   77.0165 H   0  0  0  0  0  0
   -7.8032   11.1301   75.4045 H   0  0  0  0  0  0
   -8.4491    3.7924   72.9552 H   0  0  0  0  0  0
   -5.5312    4.9514   71.6671 H   0  0  0  0  0  0
  -12.1896    7.9755   68.4034 H   0  0  0  0  0  0
   -9.2533   13.1379   69.6796 H   0  0  0  0  0  0
  1  2  1  0  0  0
  1 42  1  0  0  0
  1 43  1  0  0  0
  2  3  2  0  0  0
  2  4  2  0  0  0
  2  5  1  0  0  0
  5  6  2  0  0  0
  5 41  1  0  0  0
  6  7  1  0  0  0
  7  8  2  0  0  0
  8  9  1  0  0  0
  8 40  1  0  0  0
  9 10  1  0  0  0
 10 11  2  0  0  0
 10 39  1  0  0  0
 11 12  1  0  0  0
 12 13  2  0  0  0
 13 14  1  0  0  0
 14 15  1  0  0  0
 14 39  2  0  0  0
 15 16  1  0  0  0
 15 44  1  0  0  0
 16 17  2  0  0  0
 16 18  1  0  0  0
 18 19  1  0  0  0
 18 21  1  0  0  0
 19 20  1  0  0  0
 20 45  1  0  0  0
 21 22  2  0  0  0
 21 26  1  0  0  0
 22 23  1  0  0  0
 23 24  2  0  0  0
 24 25  1  0  0  0
 25 26  2  0  0  0
 26 27  1  0  0  0
 27 28  1  0  0  0
 28 29  1  0  0  0
 29 30  1  0  0  0
 29 46  1  0  0  0
 30 31  2  0  0  0
 30 32  1  0  0  0
 32 33  1  0  0  0
 32 38  1  0  0  0
 33 34  1  0  0  0
 34 35  1  0  0  0
 35 36  1  0  0  0
 35 37  1  0  0  0
 36 47  1  0  0  0
 37 38  1  0  0  0
 40 41  2  0  0  0
M  END
>  <AUTHOR>
    GENERATED BY OPEN BABEL 2.3.2

>  <CHROM.1>
163.59136281,-174.26450779,-113.35315415,167.43426298,-162.23435080,-54.86602189
-64.54471939,14.01903241,66.39625802,-155.26958266,46.21760517,108.89022868
46.47813847,62.90392780,-8.28392462,7.63611139,72.78698638,-0.28805758,-1.13068880
-0.13538998

>  <COMPND>
    UNNAMED

>  <MASTER>
        0    0    0    0    0    0    0    0   77    0   77    0

>  <Name>
ligands/mol8.pdb

>  <RI>
1.30655e+07

>  <Rbt.Current_Directory>
/home/rodrigo/Desktop/Rodrigo/Proyectos/test_OCONDOR/OCONDOR

>  <Rbt.Executable>
rbdock ($Id: //depot/dev/client3/rdock/2013.1/src/exe/rbdock.cxx#4 $)

>  <Rbt.Library>
libRbt.so (2013.1, Build901 2013/11/27)

>  <Rbt.Parameter_File>
dock.prm

>  <Rbt.Receptor>
rdock.prm

>  <SCORE>
-3.58293

>  <SCORE.INTER>
-2.90055

>  <SCORE.INTER.CONST>
1

>  <SCORE.INTER.POLAR>
-1.44857

>  <SCORE.INTER.REPUL>
0

>  <SCORE.INTER.ROT>
13

>  <SCORE.INTER.VDW>
-16.3754

>  <SCORE.INTER.norm>
-0.070745

>  <SCORE.INTRA>
-0.682953

>  <SCORE.INTRA.DIHEDRAL>
-4.8198

>  <SCORE.INTRA.DIHEDRAL.0>
15.0264

>  <SCORE.INTRA.POLAR>
0

>  <SCORE.INTRA.POLAR.0>
0

>  <SCORE.INTRA.REPUL>
0

>  <SCORE.INTRA.REPUL.0>
0

>  <SCORE.INTRA.VDW>
1.72695

>  <SCORE.INTRA.VDW.0>
-4.74907

>  <SCORE.INTRA.norm>
-0.0166574

>  <SCORE.RESTR>
0.000569034

>  <SCORE.RESTR.CAVITY>
0.000569034

>  <SCORE.RESTR.norm>
1.38789e-05

>  <SCORE.SYSTEM>
0

>  <SCORE.SYSTEM.CONST>
0

>  <SCORE.SYSTEM.DIHEDRAL>
0

>  <SCORE.SYSTEM.norm>
0

>  <SCORE.heavy>
41

>  <SCORE.norm>
-0.0873885

$$$$
ligands/mol8.pdb
  rDOCK(R)          3D
libRbt.so/2013.1/901 2013/11/27
 47 50  0  0  0  0  0  0  0  0999 V2000
  -14.4091   14.0342   71.3995 N   0  0  0  0  0  0
  -12.9025   13.4845   70.8932 S   0  0  0  0  0  0
  -12.8570   13.7376   69.4519 O   0  0  0  0  0  0
  -11.9519   14.0410   71.8055 O   0  0  0  0  0  0
  -13.0422   11.7330   71.1554 C   0  0  0  0  0  0
  -13.6570   11.2371   72.3012 C   0  0  0  0  0  0
  -13.7548    9.8478   72.4709 C   0  0  0  0  0  0
  -13.2195    8.9657   71.5179 C   0  0  0  0  0  0
  -13.2489    7.4665   71.7363 C   0  0  0  0  0  0
  -12.2550    6.6008   70.9817 C   0  0  0  0  0  0
  -12.3527    6.4369   69.5954 C   0  0  0  0  0  0
  -11.3062    5.8552   68.8815 C   0  0  0  0  0  0
  -10.1347    5.4539   69.5344 C   0  0  0  0  0  0
  -10.0056    5.5900   70.9169 C   0  0  0  0  0  0
   -8.8091    5.2972   71.6331 N   0  0  0  0  0  0
   -7.5901    4.8997   71.1008 C   0  0  0  0  0  0
   -7.3779    4.6669   69.9103 O   0  0  0  0  0  0
   -6.3910    4.8845   72.0656 C   0  0  0  0  0  0
   -5.1040    4.6345   71.2150 C   0  0  0  0  0  0
   -4.6885    5.8437   69.8915 S   0  0  0  0  0  0
   -6.3630    6.0135   73.1004 C   0  0  0  0  0  0
   -6.3872    5.6858   74.4649 C   0  0  0  0  0  0
   -6.2189    6.5417   75.4948 N   0  0  0  0  0  0
   -6.0609    7.8258   75.1771 C   0  0  0  0  0  0
   -6.1536    8.2913   73.8823 C   0  0  0  0  0  0
   -6.3221    7.3999   72.8033 C   0  0  0  0  0  0
   -6.5395    8.0342   71.4316 C   0  0  0  0  0  0
   -7.9764    7.9610   70.8748 C   0  0  0  0  0  0
   -8.1699    8.6336   69.5988 N   0  0  0  0  0  0
   -8.8655    9.8183   69.5118 C   0  0  0  0  0  0
   -9.3688   10.3546   70.4950 O   0  0  0  0  0  0
   -9.0399   10.3665   68.0883 C   0  0  0  0  0  0
  -10.1353   11.4509   68.0591 C   0  0  0  0  0  0
   -9.6609   12.7906   68.6367 C   0  0  0  0  0  0
   -8.3361   13.2605   68.0358 C   0  0  0  0  0  0
   -8.4869   13.5724   66.6514 O   0  0  0  0  0  0
   -7.2672   12.1773   68.1534 C   0  0  0  0  0  0
   -7.7321   10.8873   67.4765 C   0  0  0  0  0  0
  -11.0913    6.1270   71.6337 C   0  0  0  0  0  0
  -12.5772    9.5022   70.3878 C   0  0  0  0  0  0
  -12.4925   10.8804   70.2025 C   0  0  0  0  0  0
  -14.5412   15.0061   71.1367 H   0  0  0  0  0  0
  -14.5183   13.8494   72.4022 H   0  0  0  0  0  0
   -8.8495    5.4544   72.6349 H   0  0  0  0  0  0
   -5.8355    5.7605   69.1992 H   0  0  0  0  0  0
   -7.5817    8.3566   68.8257 H   0  0  0  0  0  0
   -9.1137   14.3099   66.5626 H   0  0  0  0  0  0
  1  2  1  0  0  0
  1 42  1  0  0  0
  1 43  1  0  0  0
  2  3  2  0  0  0
  2  4  2  0  0  0
  2  5  1  0  0  0
  5  6  2  0  0  0
  5 41  1  0  0  0
  6  7  1  0  0  0
  7  8  2  0  0  0
  8  9  1  0  0  0
  8 40  1  0  0  0
  9 10  1  0  0  0
 10 11  2  0  0  0
 10 39  1  0  0  0
 11 12  1  0  0  0
 12 13  2  0  0  0
 13 14  1  0  0  0
 14 15  1  0  0  0
 14 39  2  0  0  0
 15 16  1  0  0  0
 15 44  1  0  0  0
 16 17  2  0  0  0
 16 18  1  0  0  0
 18 19  1  0  0  0
 18 21  1  0  0  0
 19 20  1  0  0  0
 20 45  1  0  0  0
 21 22  2  0  0  0
 21 26  1  0  0  0
 22 23  1  0  0  0
 23 24  2  0  0  0
 24 25  1  0  0  0
 25 26  2  0  0  0
 26 27  1  0  0  0
 27 28  1  0  0  0
 28 29  1  0  0  0
 29 30  1  0  0  0
 29 46  1  0  0  0
 30 31  2  0  0  0
 30 32  1  0  0  0
 32 33  1  0  0  0
 32 38  1  0  0  0
 33 34  1  0  0  0
 34 35  1  0  0  0
 35 36  1  0  0  0
 35 37  1  0  0  0
 36 47  1  0  0  0
 37 38  1  0  0  0
 40 41  2  0  0  0
M  END
>  <AUTHOR>
    GENERATED BY OPEN BABEL 2.3.2

>  <CHROM.1>
-55.54456437,-41.37722168,-158.02028259,-68.85216670,3.06958271,-171.10900077
59.69334136,119.58278557,-56.81445418,69.38322052,176.96160141,-107.63039832
164.41773970,62.75198376,-9.47353413,8.98927598,70.72013555,2.28550738,0.31315256
-0.50526293

>  <COMPND>
    UNNAMED

>  <MASTER>
        0    0    0    0    0    0    0    0   77    0   77    0

>  <Name>
ligands/mol8.pdb

>  <RI>
1.30655e+07

>  <Rbt.Current_Directory>
/home/rodrigo/Desktop/Rodrigo/Proyectos/test_OCONDOR/OCONDOR

>  <Rbt.Executable>
rbdock ($Id: //depot/dev/client3/rdock/2013.1/src/exe/rbdock.cxx#4 $)

>  <Rbt.Library>
libRbt.so (2013.1, Build901 2013/11/27)

>  <Rbt.Parameter_File>
dock.prm

>  <Rbt.Receptor>
rdock.prm

>  <SCORE>
-7.764

>  <SCORE.INTER>
-1.4851

>  <SCORE.INTER.CONST>
1

>  <SCORE.INTER.POLAR>
0

>  <SCORE.INTER.REPUL>
0

>  <SCORE.INTER.ROT>
13

>  <SCORE.INTER.VDW>
-19.8851

>  <SCORE.INTER.norm>
-0.0362219

>  <SCORE.INTRA>
-6.2789

>  <SCORE.INTRA.DIHEDRAL>
-7.51598

>  <SCORE.INTRA.DIHEDRAL.0>
15.0264

>  <SCORE.INTRA.POLAR>
-0.107287

>  <SCORE.INTRA.POLAR.0>
0

>  <SCORE.INTRA.REPUL>
0

>  <SCORE.INTRA.REPUL.0>
0

>  <SCORE.INTRA.VDW>
-2.15614

>  <SCORE.INTRA.VDW.0>
-4.74907

>  <SCORE.INTRA.norm>
-0.153144

>  <SCORE.RESTR>
0

>  <SCORE.RESTR.CAVITY>
0

>  <SCORE.RESTR.norm>
0

>  <SCORE.SYSTEM>
0

>  <SCORE.SYSTEM.CONST>
0

>  <SCORE.SYSTEM.DIHEDRAL>
0

>  <SCORE.SYSTEM.norm>
0

>  <SCORE.heavy>
41

>  <SCORE.norm>
-0.189366

$$$$
