ligands/mol4.pdb
  rDOCK(R)          3D
libRbt.so/2013.1/901 2013/11/27
 46 49  0  0  0  0  0  0  0  0999 V2000
  -11.2045   16.3528   64.2756 N   0  0  0  0  0  0
   -9.8968   15.9734   65.2588 S   0  0  0  0  0  0
   -9.3977   14.7095   64.8080 O   0  0  0  0  0  0
   -9.0821   17.1793   65.2787 O   0  0  0  0  0  0
  -10.6559   15.7564   66.8428 C   0  0  0  0  0  0
  -11.8495   15.0427   66.9543 C   0  0  0  0  0  0
  -12.4467   14.8928   68.2066 C   0  0  0  0  0  0
  -11.8702   15.4623   69.3542 C   0  0  0  0  0  0
  -12.5258   15.2897   70.7107 C   0  0  0  0  0  0
  -12.9069   13.8606   71.0432 C   0  0  0  0  0  0
  -13.5907   13.5551   72.2264 C   0  0  0  0  0  0
  -13.9088   12.2322   72.5386 C   0  0  0  0  0  0
  -13.5504   11.1922   71.6769 C   0  0  0  0  0  0
  -12.8401   11.4674   70.5123 C   0  0  0  0  0  0
  -12.3444   10.4791   69.6349 N   0  0  0  0  0  0
  -11.0823   10.3776   69.0550 C   0  0  0  0  0  0
  -10.1561   11.1650   69.1867 O   0  0  0  0  0  0
  -11.0029    9.2061   68.3080 N   0  0  0  0  0  0
   -9.9315    8.7020   67.5964 C   0  0  0  0  0  0
  -10.0096    7.5812   66.8461 C   0  0  0  0  0  0
  -11.2778    6.7676   66.6467 C   0  0  0  0  0  0
  -11.5221    5.6781   67.6961 C   0  0  0  0  0  0
  -11.9709    6.2490   68.9560 N   0  0  0  0  0  0
  -11.1055    6.4103   70.0090 C   0  0  0  0  0  0
   -9.9510    5.9978   69.9651 O   0  0  0  0  0  0
  -11.7254    7.0477   71.2586 C   0  0  0  0  0  0
  -12.0663    5.9666   72.2972 C   0  0  0  0  0  0
  -10.8284    5.4202   73.0178 C   0  0  0  0  0  0
   -9.9444    6.5213   73.6019 C   0  0  0  0  0  0
  -10.5770    7.0940   74.7475 O   0  0  0  0  0  0
   -9.6188    7.6102   72.5774 C   0  0  0  0  0  0
  -10.8659    8.1568   71.8820 C   0  0  0  0  0  0
   -8.7744    7.0808   66.1142 C   0  0  0  0  0  0
   -7.5000    7.5493   66.7888 C   0  0  0  0  0  0
   -6.5504    6.7831   66.9222 O   0  0  0  0  0  0
   -7.4746    8.8719   67.1485 N   0  0  0  0  0  0
   -8.6046    9.3966   67.5088 C   0  0  0  0  0  0
  -12.5404   12.8055   70.1934 C   0  0  0  0  0  0
  -10.6651   16.1711   69.2252 C   0  0  0  0  0  0
  -10.0587   16.3229   67.9723 C   0  0  0  0  0  0
  -10.9264   16.2691   63.2980 H   0  0  0  0  0  0
  -11.5664   17.2739   64.5234 H   0  0  0  0  0  0
  -13.0578    9.8642   69.2755 H   0  0  0  0  0  0
  -11.8046    8.6071   68.4078 H   0  0  0  0  0  0
  -12.8611    6.7305   68.9903 H   0  0  0  0  0  0
  -11.4199    7.4836   74.4628 H   0  0  0  0  0  0
  1  2  1  0  0  0
  1 41  1  0  0  0
  1 42  1  0  0  0
  2  3  2  0  0  0
  2  4  2  0  0  0
  2  5  1  0  0  0
  5  6  2  0  0  0
  5 40  1  0  0  0
  6  7  1  0  0  0
  7  8  2  0  0  0
  8  9  1  0  0  0
  8 39  1  0  0  0
  9 10  1  0  0  0
 10 11  2  0  0  0
 10 38  1  0  0  0
 11 12  1  0  0  0
 12 13  2  0  0  0
 13 14  1  0  0  0
 14 15  1  0  0  0
 14 38  2  0  0  0
 15 16  1  0  0  0
 15 43  1  0  0  0
 16 17  2  0  0  0
 16 18  1  0  0  0
 18 19  1  0  0  0
 18 44  1  0  0  0
 19 20  2  0  0  0
 19 37  1  0  0  0
 20 21  1  0  0  0
 20 33  1  0  0  0
 21 22  1  0  0  0
 22 23  1  0  0  0
 23 24  1  0  0  0
 23 45  1  0  0  0
 24 25  2  0  0  0
 24 26  1  0  0  0
 26 27  1  0  0  0
 26 32  1  0  0  0
 27 28  1  0  0  0
 28 29  1  0  0  0
 29 30  1  0  0  0
 29 31  1  0  0  0
 30 46  1  0  0  0
 31 32  1  0  0  0
 33 34  1  0  0  0
 34 35  2  0  0  0
 34 36  1  0  0  0
 36 37  2  0  0  0
 39 40  2  0  0  0
M  END
>  <AUTHOR>
    GENERATED BY OPEN BABEL 2.3.2

>  <CHROM.1>
-51.41143694,43.47859086,48.99267720,-176.25954048,-133.60719540,-176.15532346
-88.40793079,74.86194927,-101.11023940,100.15736621,-61.24687506,-10.77779090
10.74317678,68.96988570,-1.61718665,-1.03637037,2.69639419

>  <COMPND>
    UNNAMED

>  <MASTER>
        0    0    0    0    0    0    0    0   73    0   73    0

>  <Name>
ligands/mol4.pdb

>  <RI>
1.19883e+07

>  <Rbt.Current_Directory>
/home/rodrigo/Desktop/Rodrigo/Proyectos/test_OCONDOR/OCONDOR

>  <Rbt.Executable>
rbdock ($Id: //depot/dev/client3/rdock/2013.1/src/exe/rbdock.cxx#4 $)

>  <Rbt.Library>
libRbt.so (2013.1, Build901 2013/11/27)

>  <Rbt.Parameter_File>
dock.prm

>  <Rbt.Receptor>
rdock.prm

>  <SCORE>
-26.3028

>  <SCORE.INTER>
-27.3004

>  <SCORE.INTER.CONST>
1

>  <SCORE.INTER.POLAR>
-3.09966

>  <SCORE.INTER.REPUL>
0.0028864

>  <SCORE.INTER.ROT>
10

>  <SCORE.INTER.VDW>
-32.176

>  <SCORE.INTER.norm>
-0.682511

>  <SCORE.INTRA>
0.997612

>  <SCORE.INTRA.DIHEDRAL>
9.63547

>  <SCORE.INTRA.DIHEDRAL.0>
8.51926

>  <SCORE.INTRA.POLAR>
0

>  <SCORE.INTRA.POLAR.0>
0

>  <SCORE.INTRA.REPUL>
0

>  <SCORE.INTRA.REPUL.0>
0

>  <SCORE.INTRA.VDW>
-3.82012

>  <SCORE.INTRA.VDW.0>
-1.46228

>  <SCORE.INTRA.norm>
0.0249403

>  <SCORE.RESTR>
0

>  <SCORE.RESTR.CAVITY>
0

>  <SCORE.RESTR.norm>
0

>  <SCORE.SYSTEM>
0

>  <SCORE.SYSTEM.CONST>
0

>  <SCORE.SYSTEM.DIHEDRAL>
0

>  <SCORE.SYSTEM.norm>
0

>  <SCORE.heavy>
40

>  <SCORE.norm>
-0.657571

$$$$
ligands/mol4.pdb
  rDOCK(R)          3D
libRbt.so/2013.1/901 2013/11/27
 46 49  0  0  0  0  0  0  0  0999 V2000
  -11.3063    8.3407   68.9502 N   0  0  0  0  0  0
  -11.1066    8.3436   70.6177 S   0  0  0  0  0  0
  -11.8148    7.2042   71.1177 O   0  0  0  0  0  0
   -9.6782    8.5343   70.8225 O   0  0  0  0  0  0
  -11.9666    9.8112   71.1063 C   0  0  0  0  0  0
  -12.9978    9.7382   72.0433 C   0  0  0  0  0  0
  -13.6792   10.9000   72.4080 C   0  0  0  0  0  0
  -13.3508   12.1397   71.8344 C   0  0  0  0  0  0
  -14.0953   13.3967   72.2410 C   0  0  0  0  0  0
  -13.2210   14.6292   72.3622 C   0  0  0  0  0  0
  -13.2518   15.4225   73.5157 C   0  0  0  0  0  0
  -12.4665   16.5733   73.6043 C   0  0  0  0  0  0
  -11.6380   16.9523   72.5449 C   0  0  0  0  0  0
  -11.6165   16.1992   71.3749 C   0  0  0  0  0  0
  -10.8950   16.5572   70.2159 N   0  0  0  0  0  0
  -10.5488   17.8261   69.7580 C   0  0  0  0  0  0
  -10.8387   18.8923   70.2820 O   0  0  0  0  0  0
   -9.7767   17.7138   68.6057 N   0  0  0  0  0  0
   -9.2011   18.7140   67.8463 C   0  0  0  0  0  0
   -8.2248   18.4807   66.9421 C   0  0  0  0  0  0
   -7.6744   17.1039   66.6081 C   0  0  0  0  0  0
   -8.3741   16.3889   65.4473 C   0  0  0  0  0  0
   -9.6697   15.8671   65.8520 N   0  0  0  0  0  0
   -9.8313   14.5424   66.1727 C   0  0  0  0  0  0
   -8.9207   13.7308   66.0428 O   0  0  0  0  0  0
  -11.2513   14.1538   66.6024 C   0  0  0  0  0  0
  -12.2903   14.8582   65.7146 C   0  0  0  0  0  0
  -12.3938   14.2427   64.3144 C   0  0  0  0  0  0
  -12.5931   12.7279   64.3425 C   0  0  0  0  0  0
  -13.9217   12.4217   64.7687 O   0  0  0  0  0  0
  -11.5737   12.0241   65.2407 C   0  0  0  0  0  0
  -11.4968   12.6386   66.6387 C   0  0  0  0  0  0
   -7.6277   19.6437   66.1657 C   0  0  0  0  0  0
   -7.7746   20.9504   66.9206 C   0  0  0  0  0  0
   -6.8470   21.7533   66.9578 O   0  0  0  0  0  0
   -9.0108   21.1808   67.4663 N   0  0  0  0  0  0
   -9.6652   20.1403   67.8801 C   0  0  0  0  0  0
  -12.3955   15.0289   71.2999 C   0  0  0  0  0  0
  -12.3057   12.1965   70.8986 C   0  0  0  0  0  0
  -11.6155   11.0352   70.5303 C   0  0  0  0  0  0
  -12.2748    8.5688   68.7265 H   0  0  0  0  0  0
  -10.9944    7.4480   68.5671 H   0  0  0  0  0  0
  -10.7558   15.7918   69.5747 H   0  0  0  0  0  0
   -9.5211   16.7676   68.3801 H   0  0  0  0  0  0
  -10.4036   16.5150   66.1110 H   0  0  0  0  0  0
  -14.0997   11.4912   64.5547 H   0  0  0  0  0  0
  1  2  1  0  0  0
  1 41  1  0  0  0
  1 42  1  0  0  0
  2  3  2  0  0  0
  2  4  2  0  0  0
  2  5  1  0  0  0
  5  6  2  0  0  0
  5 40  1  0  0  0
  6  7  1  0  0  0
  7  8  2  0  0  0
  8  9  1  0  0  0
  8 39  1  0  0  0
  9 10  1  0  0  0
 10 11  2  0  0  0
 10 38  1  0  0  0
 11 12  1  0  0  0
 12 13  2  0  0  0
 13 14  1  0  0  0
 14 15  1  0  0  0
 14 38  2  0  0  0
 15 16  1  0  0  0
 15 43  1  0  0  0
 16 17  2  0  0  0
 16 18  1  0  0  0
 18 19  1  0  0  0
 18 44  1  0  0  0
 19 20  2  0  0  0
 19 37  1  0  0  0
 20 21  1  0  0  0
 20 33  1  0  0  0
 21 22  1  0  0  0
 22 23  1  0  0  0
 23 24  1  0  0  0
 23 45  1  0  0  0
 24 25  2  0  0  0
 24 26  1  0  0  0
 26 27  1  0  0  0
 26 32  1  0  0  0
 27 28  1  0  0  0
 28 29  1  0  0  0
 29 30  1  0  0  0
 29 31  1  0  0  0
 30 46  1  0  0  0
 31 32  1  0  0  0
 33 34  1  0  0  0
 34 35  2  0  0  0
 34 36  1  0  0  0
 36 37  2  0  0  0
 39 40  2  0  0  0
M  END
>  <AUTHOR>
    GENERATED BY OPEN BABEL 2.3.2

>  <CHROM.1>
69.96387282,123.78676047,141.04035505,-128.77220975,-28.65119507,163.92378140
91.38955213,-75.40116379,-100.06988835,40.91410706,165.12991680,-10.95510739
14.45531178,68.83500814,-2.66238222,1.21481957,0.71516072

>  <COMPND>
    UNNAMED

>  <MASTER>
        0    0    0    0    0    0    0    0   73    0   73    0

>  <Name>
ligands/mol4.pdb

>  <RI>
1.19883e+07

>  <Rbt.Current_Directory>
/home/rodrigo/Desktop/Rodrigo/Proyectos/test_OCONDOR/OCONDOR

>  <Rbt.Executable>
rbdock ($Id: //depot/dev/client3/rdock/2013.1/src/exe/rbdock.cxx#4 $)

>  <Rbt.Library>
libRbt.so (2013.1, Build901 2013/11/27)

>  <Rbt.Parameter_File>
dock.prm

>  <Rbt.Receptor>
rdock.prm

>  <SCORE>
-16.5164

>  <SCORE.INTER>
-17.1759

>  <SCORE.INTER.CONST>
1

>  <SCORE.INTER.POLAR>
-0.879798

>  <SCORE.INTER.REPUL>
0.150236

>  <SCORE.INTER.ROT>
10

>  <SCORE.INTER.VDW>
-30.3358

>  <SCORE.INTER.norm>
-0.429397

>  <SCORE.INTRA>
0.659504

>  <SCORE.INTRA.DIHEDRAL>
5.05101

>  <SCORE.INTRA.DIHEDRAL.0>
8.51926

>  <SCORE.INTRA.POLAR>
0

>  <SCORE.INTRA.POLAR.0>
0

>  <SCORE.INTRA.REPUL>
0

>  <SCORE.INTRA.REPUL.0>
0

>  <SCORE.INTRA.VDW>
-1.866

>  <SCORE.INTRA.VDW.0>
-1.46228

>  <SCORE.INTRA.norm>
0.0164876

>  <SCORE.RESTR>
0

>  <SCORE.RESTR.CAVITY>
0

>  <SCORE.RESTR.norm>
0

>  <SCORE.SYSTEM>
0

>  <SCORE.SYSTEM.CONST>
0

>  <SCORE.SYSTEM.DIHEDRAL>
0

>  <SCORE.SYSTEM.norm>
0

>  <SCORE.heavy>
40

>  <SCORE.norm>
-0.41291

$$$$
ligands/mol4.pdb
  rDOCK(R)          3D
libRbt.so/2013.1/901 2013/11/27
 46 49  0  0  0  0  0  0  0  0999 V2000
  -10.7012    4.3235   78.0906 N   0  0  0  0  0  0
   -9.5300    5.2994   77.3859 S   0  0  0  0  0  0
   -9.5899    6.5623   78.0577 O   0  0  0  0  0  0
   -8.3278    4.4793   77.3579 O   0  0  0  0  0  0
  -10.1374    5.5000   75.7358 C   0  0  0  0  0  0
  -10.5917    4.3929   75.0184 C   0  0  0  0  0  0
  -11.0528    4.5617   73.7123 C   0  0  0  0  0  0
  -11.0527    5.8284   73.1047 C   0  0  0  0  0  0
  -11.5597    6.0009   71.6859 C   0  0  0  0  0  0
  -12.6865    7.0050   71.5429 C   0  0  0  0  0  0
  -13.9245    6.7899   72.1607 C   0  0  0  0  0  0
  -14.9660    7.7049   71.9964 C   0  0  0  0  0  0
  -14.7907    8.8489   71.2135 C   0  0  0  0  0  0
  -13.5808    9.0667   70.5614 C   0  0  0  0  0  0
  -13.3433   10.1340   69.6689 N   0  0  0  0  0  0
  -12.4910   11.2254   69.8171 C   0  0  0  0  0  0
  -11.7919   11.4752   70.7889 O   0  0  0  0  0  0
  -12.5173   12.0006   68.6618 N   0  0  0  0  0  0
  -11.8062   13.1489   68.3713 C   0  0  0  0  0  0
  -11.8711   13.7701   67.1733 C   0  0  0  0  0  0
  -12.7587   13.3260   66.0223 C   0  0  0  0  0  0
  -12.3263   12.0278   65.3324 C   0  0  0  0  0  0
  -10.8817   11.9680   65.1764 N   0  0  0  0  0  0
  -10.1793   10.8369   65.5094 C   0  0  0  0  0  0
  -10.7225    9.8708   66.0353 O   0  0  0  0  0  0
   -8.6678   10.9237   65.2647 C   0  0  0  0  0  0
   -8.0098   11.8452   66.3047 C   0  0  0  0  0  0
   -7.8911   11.1948   67.6878 C   0  0  0  0  0  0
   -7.2345    9.8156   67.6434 C   0  0  0  0  0  0
   -5.8349    9.9531   67.3923 O   0  0  0  0  0  0
   -7.8729    8.9013   66.5957 C   0  0  0  0  0  0
   -7.9664    9.5586   65.2185 C   0  0  0  0  0  0
  -11.0352   15.0164   66.9283 C   0  0  0  0  0  0
   -9.8125   15.0513   67.8242 C   0  0  0  0  0  0
   -8.7254   15.4048   67.3772 O   0  0  0  0  0  0
  -10.0369   14.7435   69.1410 N   0  0  0  0  0  0
  -10.9670   13.8726   69.3827 C   0  0  0  0  0  0
  -12.5282    8.1506   70.7477 C   0  0  0  0  0  0
  -10.5991    6.9329   73.8432 C   0  0  0  0  0  0
  -10.1379    6.7714   75.1554 C   0  0  0  0  0  0
  -10.5941    3.3686   77.7490 H   0  0  0  0  0  0
  -11.6264    4.7195   77.9231 H   0  0  0  0  0  0
  -13.9969   10.1718   68.9023 H   0  0  0  0  0  0
  -13.0426   11.5887   67.9096 H   0  0  0  0  0  0
  -10.4159   12.6738   64.6194 H   0  0  0  0  0  0
   -5.7248   10.3851   66.5294 H   0  0  0  0  0  0
  1  2  1  0  0  0
  1 41  1  0  0  0
  1 42  1  0  0  0
  2  3  2  0  0  0
  2  4  2  0  0  0
  2  5  1  0  0  0
  5  6  2  0  0  0
  5 40  1  0  0  0
  6  7  1  0  0  0
  7  8  2  0  0  0
  8  9  1  0  0  0
  8 39  1  0  0  0
  9 10  1  0  0  0
 10 11  2  0  0  0
 10 38  1  0  0  0
 11 12  1  0  0  0
 12 13  2  0  0  0
 13 14  1  0  0  0
 14 15  1  0  0  0
 14 38  2  0  0  0
 15 16  1  0  0  0
 15 43  1  0  0  0
 16 17  2  0  0  0
 16 18  1  0  0  0
 18 19  1  0  0  0
 18 44  1  0  0  0
 19 20  2  0  0  0
 19 37  1  0  0  0
 20 21  1  0  0  0
 20 33  1  0  0  0
 21 22  1  0  0  0
 22 23  1  0  0  0
 23 24  1  0  0  0
 23 45  1  0  0  0
 24 25  2  0  0  0
 24 26  1  0  0  0
 26 27  1  0  0  0
 26 32  1  0  0  0
 27 28  1  0  0  0
 28 29  1  0  0  0
 29 30  1  0  0  0
 29 31  1  0  0  0
 30 46  1  0  0  0
 31 32  1  0  0  0
 33 34  1  0  0  0
 34 35  2  0  0  0
 34 36  1  0  0  0
 36 37  2  0  0  0
 39 40  2  0  0  0
M  END
>  <AUTHOR>
    GENERATED BY OPEN BABEL 2.3.2

>  <CHROM.1>
-170.88528904,-46.47999824,123.11058831,-63.69223333,113.08145079,176.27776385
-70.99116304,-40.58112486,133.16004549,72.45182585,-61.11467665,-10.65484428
9.47439469,70.40330144,-1.60006152,0.24670423,-0.90602993

>  <COMPND>
    UNNAMED

>  <MASTER>
        0    0    0    0    0    0    0    0   73    0   73    0

>  <Name>
ligands/mol4.pdb

>  <RI>
1.19883e+07

>  <Rbt.Current_Directory>
/home/rodrigo/Desktop/Rodrigo/Proyectos/test_OCONDOR/OCONDOR

>  <Rbt.Executable>
rbdock ($Id: //depot/dev/client3/rdock/2013.1/src/exe/rbdock.cxx#4 $)

>  <Rbt.Library>
libRbt.so (2013.1, Build901 2013/11/27)

>  <Rbt.Parameter_File>
dock.prm

>  <Rbt.Receptor>
rdock.prm

>  <SCORE>
-14.596

>  <SCORE.INTER>
-16.1143

>  <SCORE.INTER.CONST>
1

>  <SCORE.INTER.POLAR>
-2.24558

>  <SCORE.INTER.REPUL>
0.0312689

>  <SCORE.INTER.ROT>
10

>  <SCORE.INTER.VDW>
-24.0357

>  <SCORE.INTER.norm>
-0.402857

>  <SCORE.INTRA>
1.51824

>  <SCORE.INTRA.DIHEDRAL>
10.9969

>  <SCORE.INTRA.DIHEDRAL.0>
8.51926

>  <SCORE.INTRA.POLAR>
0

>  <SCORE.INTRA.POLAR.0>
0

>  <SCORE.INTRA.REPUL>
0

>  <SCORE.INTRA.REPUL.0>
0

>  <SCORE.INTRA.VDW>
-3.98018

>  <SCORE.INTRA.VDW.0>
-1.46228

>  <SCORE.INTRA.norm>
0.0379561

>  <SCORE.RESTR>
0

>  <SCORE.RESTR.CAVITY>
0

>  <SCORE.RESTR.norm>
0

>  <SCORE.SYSTEM>
0

>  <SCORE.SYSTEM.CONST>
0

>  <SCORE.SYSTEM.DIHEDRAL>
0

>  <SCORE.SYSTEM.norm>
0

>  <SCORE.heavy>
40

>  <SCORE.norm>
-0.364901

$$$$
ligands/mol4.pdb
  rDOCK(R)          3D
libRbt.so/2013.1/901 2013/11/27
 46 49  0  0  0  0  0  0  0  0999 V2000
   -9.0417    5.6571   74.0469 N   0  0  0  0  0  0
  -10.6858    5.9679   73.9026 S   0  0  0  0  0  0
  -11.3672    4.8123   74.4024 O   0  0  0  0  0  0
  -10.8664    7.2953   74.4718 O   0  0  0  0  0  0
  -10.9101    6.0502   72.1490 C   0  0  0  0  0  0
  -10.0138    5.4023   71.2983 C   0  0  0  0  0  0
  -10.1921    5.4885   69.9170 C   0  0  0  0  0  0
  -11.2530    6.2300   69.3708 C   0  0  0  0  0  0
  -11.4395    6.3136   67.8682 C   0  0  0  0  0  0
  -10.9722    7.6176   67.2522 C   0  0  0  0  0  0
  -10.0750    7.6246   66.1771 C   0  0  0  0  0  0
   -9.6261    8.8315   65.6378 C   0  0  0  0  0  0
  -10.0638   10.0509   66.1613 C   0  0  0  0  0  0
  -10.9282   10.0695   67.2517 C   0  0  0  0  0  0
  -11.3420   11.2452   67.9141 N   0  0  0  0  0  0
  -11.9691   11.3782   69.1505 C   0  0  0  0  0  0
  -12.3067   10.4696   69.8960 O   0  0  0  0  0  0
  -12.1362   12.7272   69.4483 N   0  0  0  0  0  0
  -12.6827   13.3050   70.5779 C   0  0  0  0  0  0
  -12.8393   14.6396   70.7182 C   0  0  0  0  0  0
  -12.4889   15.6626   69.6503 C   0  0  0  0  0  0
  -11.0112   16.0644   69.5958 C   0  0  0  0  0  0
  -10.5835   16.3217   68.2299 N   0  0  0  0  0  0
   -9.2723   16.6043   67.9393 C   0  0  0  0  0  0
   -8.4308   16.7431   68.8210 O   0  0  0  0  0  0
   -8.9776   16.8278   66.4509 C   0  0  0  0  0  0
   -9.4482   18.2255   66.0165 C   0  0  0  0  0  0
   -8.5266   19.3458   66.5119 C   0  0  0  0  0  0
   -7.0567   19.1021   66.1726 C   0  0  0  0  0  0
   -6.8424   19.3025   64.7745 O   0  0  0  0  0  0
   -6.5888   17.7049   66.5849 C   0  0  0  0  0  0
   -7.5087   16.5988   66.0670 C   0  0  0  0  0  0
  -13.4267   15.1946   72.0062 C   0  0  0  0  0  0
  -13.2035   14.2509   73.1716 C   0  0  0  0  0  0
  -12.8687   14.6877   74.2687 O   0  0  0  0  0  0
  -13.4758   12.9307   72.9223 N   0  0  0  0  0  0
  -13.2422   12.5076   71.7188 C   0  0  0  0  0  0
  -11.3929    8.8491   67.7777 C   0  0  0  0  0  0
  -12.1499    6.8696   70.2413 C   0  0  0  0  0  0
  -11.9789    6.7849   71.6284 C   0  0  0  0  0  0
   -8.5155    6.4483   73.6766 H   0  0  0  0  0  0
   -8.8183    4.7681   73.5990 H   0  0  0  0  0  0
  -11.3085   12.0685   67.3334 H   0  0  0  0  0  0
  -11.6891   13.3450   68.7926 H   0  0  0  0  0  0
  -11.2013   16.0784   67.4653 H   0  0  0  0  0  0
   -7.3873   18.6600   64.2912 H   0  0  0  0  0  0
  1  2  1  0  0  0
  1 41  1  0  0  0
  1 42  1  0  0  0
  2  3  2  0  0  0
  2  4  2  0  0  0
  2  5  1  0  0  0
  5  6  2  0  0  0
  5 40  1  0  0  0
  6  7  1  0  0  0
  7  8  2  0  0  0
  8  9  1  0  0  0
  8 39  1  0  0  0
  9 10  1  0  0  0
 10 11  2  0  0  0
 10 38  1  0  0  0
 11 12  1  0  0  0
 12 13  2  0  0  0
 13 14  1  0  0  0
 14 15  1  0  0  0
 14 38  2  0  0  0
 15 16  1  0  0  0
 15 43  1  0  0  0
 16 17  2  0  0  0
 16 18  1  0  0  0
 18 19  1  0  0  0
 18 44  1  0  0  0
 19 20  2  0  0  0
 19 37  1  0  0  0
 20 21  1  0  0  0
 20 33  1  0  0  0
 21 22  1  0  0  0
 22 23  1  0  0  0
 23 24  1  0  0  0
 23 45  1  0  0  0
 24 25  2  0  0  0
 24 26  1  0  0  0
 26 27  1  0  0  0
 26 32  1  0  0  0
 27 28  1  0  0  0
 28 29  1  0  0  0
 29 30  1  0  0  0
 29 31  1  0  0  0
 30 46  1  0  0  0
 31 32  1  0  0  0
 33 34  1  0  0  0
 34 35  2  0  0  0
 34 36  1  0  0  0
 36 37  2  0  0  0
 39 40  2  0  0  0
M  END
>  <AUTHOR>
    GENERATED BY OPEN BABEL 2.3.2

>  <CHROM.1>
178.45164054,24.00265546,-102.51796698,127.00647209,-165.72398232,-177.05663057
-82.61757145,145.19440982,-175.35060601,77.02355247,-61.34603945,-10.69182599
11.67801641,69.63717770,1.96367780,-1.11707582,3.09604904

>  <COMPND>
    UNNAMED

>  <MASTER>
        0    0    0    0    0    0    0    0   73    0   73    0

>  <Name>
ligands/mol4.pdb

>  <RI>
1.19883e+07

>  <Rbt.Current_Directory>
/home/rodrigo/Desktop/Rodrigo/Proyectos/test_OCONDOR/OCONDOR

>  <Rbt.Executable>
rbdock ($Id: //depot/dev/client3/rdock/2013.1/src/exe/rbdock.cxx#4 $)

>  <Rbt.Library>
libRbt.so (2013.1, Build901 2013/11/27)

>  <Rbt.Parameter_File>
dock.prm

>  <Rbt.Receptor>
rdock.prm

>  <SCORE>
-15.2069

>  <SCORE.INTER>
-15.9459

>  <SCORE.INTER.CONST>
1

>  <SCORE.INTER.POLAR>
-0.565586

>  <SCORE.INTER.REPUL>
0.160259

>  <SCORE.INTER.ROT>
10

>  <SCORE.INTER.VDW>
-30.2242

>  <SCORE.INTER.norm>
-0.398646

>  <SCORE.INTRA>
0.738963

>  <SCORE.INTRA.DIHEDRAL>
4.47476

>  <SCORE.INTRA.DIHEDRAL.0>
8.51926

>  <SCORE.INTRA.POLAR>
0

>  <SCORE.INTRA.POLAR.0>
0

>  <SCORE.INTRA.REPUL>
0

>  <SCORE.INTRA.REPUL.0>
0

>  <SCORE.INTRA.VDW>
-1.49842

>  <SCORE.INTRA.VDW.0>
-1.46228

>  <SCORE.INTRA.norm>
0.0184741

>  <SCORE.RESTR>
0

>  <SCORE.RESTR.CAVITY>
0

>  <SCORE.RESTR.norm>
0

>  <SCORE.SYSTEM>
0

>  <SCORE.SYSTEM.CONST>
0

>  <SCORE.SYSTEM.DIHEDRAL>
0

>  <SCORE.SYSTEM.norm>
0

>  <SCORE.heavy>
40

>  <SCORE.norm>
-0.380172

$$$$
ligands/mol4.pdb
  rDOCK(R)          3D
libRbt.so/2013.1/901 2013/11/27
 46 49  0  0  0  0  0  0  0  0999 V2000
  -11.0217   19.9847   66.6685 N   0  0  0  0  0  0
   -9.8419   18.7932   66.7629 S   0  0  0  0  0  0
   -8.7482   19.2336   65.9507 O   0  0  0  0  0  0
   -9.7041   18.5158   68.1851 O   0  0  0  0  0  0
  -10.6220   17.4150   65.9730 C   0  0  0  0  0  0
  -10.7429   16.1993   66.6469 C   0  0  0  0  0  0
  -11.3453   15.1153   66.0072 C   0  0  0  0  0  0
  -11.8189   15.2269   64.6892 C   0  0  0  0  0  0
  -12.4754   14.0434   64.0051 C   0  0  0  0  0  0
  -11.6275   12.7870   63.9799 C   0  0  0  0  0  0
  -10.9454   12.4026   62.8190 C   0  0  0  0  0  0
  -10.1931   11.2268   62.7967 C   0  0  0  0  0  0
  -10.1086   10.4150   63.9308 C   0  0  0  0  0  0
  -10.8057   10.7581   65.0853 C   0  0  0  0  0  0
  -10.8668    9.9521   66.2423 N   0  0  0  0  0  0
  -11.4017   10.2546   67.4921 C   0  0  0  0  0  0
  -11.9082   11.3156   67.8287 O   0  0  0  0  0  0
  -11.3095    9.1421   68.3229 N   0  0  0  0  0  0
  -11.7417    8.9950   69.6268 C   0  0  0  0  0  0
  -11.6767    7.8223   70.2946 C   0  0  0  0  0  0
  -11.0826    6.5431   69.7284 C   0  0  0  0  0  0
   -9.5573    6.4354   69.8288 C   0  0  0  0  0  0
   -9.0866    6.8166   71.1509 N   0  0  0  0  0  0
   -8.8043    5.8691   72.1029 C   0  0  0  0  0  0
   -9.0240    4.6773   71.9129 O   0  0  0  0  0  0
   -8.2955    6.4299   73.4366 C   0  0  0  0  0  0
   -9.3098    7.4278   74.0190 C   0  0  0  0  0  0
  -10.5445    6.7430   74.6164 C   0  0  0  0  0  0
  -10.1905    5.6366   75.6091 C   0  0  0  0  0  0
   -9.7033    6.2119   76.8225 O   0  0  0  0  0  0
   -9.1660    4.6521   75.0414 C   0  0  0  0  0  0
   -7.9332    5.3505   74.4668 C   0  0  0  0  0  0
  -12.1983    7.7412   71.7205 C   0  0  0  0  0  0
  -13.2489    8.8007   71.9898 C   0  0  0  0  0  0
  -14.2608    8.5237   72.6269 O   0  0  0  0  0  0
  -12.9427   10.0613   71.5467 N   0  0  0  0  0  0
  -12.2371   10.1390   70.4613 C   0  0  0  0  0  0
  -11.5459   11.9554   65.1075 C   0  0  0  0  0  0
  -11.6959   16.4595   64.0283 C   0  0  0  0  0  0
  -11.0954   17.5523   64.6652 C   0  0  0  0  0  0
  -10.6439   20.8620   67.0258 H   0  0  0  0  0  0
  -11.8655   19.6733   67.1499 H   0  0  0  0  0  0
  -10.3109    9.1134   66.1796 H   0  0  0  0  0  0
  -10.9867    8.3126   67.8547 H   0  0  0  0  0  0
   -8.7560    7.7615   71.3035 H   0  0  0  0  0  0
   -8.8928    6.7061   76.6173 H   0  0  0  0  0  0
  1  2  1  0  0  0
  1 41  1  0  0  0
  1 42  1  0  0  0
  2  3  2  0  0  0
  2  4  2  0  0  0
  2  5  1  0  0  0
  5  6  2  0  0  0
  5 40  1  0  0  0
  6  7  1  0  0  0
  7  8  2  0  0  0
  8  9  1  0  0  0
  8 39  1  0  0  0
  9 10  1  0  0  0
 10 11  2  0  0  0
 10 38  1  0  0  0
 11 12  1  0  0  0
 12 13  2  0  0  0
 13 14  1  0  0  0
 14 15  1  0  0  0
 14 38  2  0  0  0
 15 16  1  0  0  0
 15 43  1  0  0  0
 16 17  2  0  0  0
 16 18  1  0  0  0
 18 19  1  0  0  0
 18 44  1  0  0  0
 19 20  2  0  0  0
 19 37  1  0  0  0
 20 21  1  0  0  0
 20 33  1  0  0  0
 21 22  1  0  0  0
 22 23  1  0  0  0
 23 24  1  0  0  0
 23 45  1  0  0  0
 24 25  2  0  0  0
 24 26  1  0  0  0
 26 27  1  0  0  0
 26 32  1  0  0  0
 27 28  1  0  0  0
 28 29  1  0  0  0
 29 30  1  0  0  0
 29 31  1  0  0  0
 30 46  1  0  0  0
 31 32  1  0  0  0
 33 34  1  0  0  0
 34 35  2  0  0  0
 34 36  1  0  0  0
 36 37  2  0  0  0
 39 40  2  0  0  0
M  END
>  <AUTHOR>
    GENERATED BY OPEN BABEL 2.3.2

>  <CHROM.1>
-60.62751950,-124.24733255,-55.22416946,-102.23735325,172.14141244,175.07560552
82.44123644,45.94864498,97.99944819,56.75029252,-62.16570530,-10.71414367
11.09157894,68.89800100,-1.89711130,1.41850318,2.81090020

>  <COMPND>
    UNNAMED

>  <MASTER>
        0    0    0    0    0    0    0    0   73    0   73    0

>  <Name>
ligands/mol4.pdb

>  <RI>
1.19883e+07

>  <Rbt.Current_Directory>
/home/rodrigo/Desktop/Rodrigo/Proyectos/test_OCONDOR/OCONDOR

>  <Rbt.Executable>
rbdock ($Id: //depot/dev/client3/rdock/2013.1/src/exe/rbdock.cxx#4 $)

>  <Rbt.Library>
libRbt.so (2013.1, Build901 2013/11/27)

>  <Rbt.Parameter_File>
dock.prm

>  <Rbt.Receptor>
rdock.prm

>  <SCORE>
-18.0593

>  <SCORE.INTER>
-15.4814

>  <SCORE.INTER.CONST>
1

>  <SCORE.INTER.POLAR>
0

>  <SCORE.INTER.REPUL>
0.0183906

>  <SCORE.INTER.ROT>
10

>  <SCORE.INTER.VDW>
-30.9734

>  <SCORE.INTER.norm>
-0.387036

>  <SCORE.INTRA>
-2.5778

>  <SCORE.INTRA.DIHEDRAL>
-0.318353

>  <SCORE.INTRA.DIHEDRAL.0>
8.51926

>  <SCORE.INTRA.POLAR>
0

>  <SCORE.INTRA.POLAR.0>
0

>  <SCORE.INTRA.REPUL>
0

>  <SCORE.INTRA.REPUL.0>
0

>  <SCORE.INTRA.VDW>
-2.41862

>  <SCORE.INTRA.VDW.0>
-1.46228

>  <SCORE.INTRA.norm>
-0.064445

>  <SCORE.RESTR>
0

>  <SCORE.RESTR.CAVITY>
0

>  <SCORE.RESTR.norm>
0

>  <SCORE.SYSTEM>
0

>  <SCORE.SYSTEM.CONST>
0

>  <SCORE.SYSTEM.DIHEDRAL>
0

>  <SCORE.SYSTEM.norm>
0

>  <SCORE.heavy>
40

>  <SCORE.norm>
-0.451481

$$$$
ligands/mol4.pdb
  rDOCK(R)          3D
libRbt.so/2013.1/901 2013/11/27
 46 49  0  0  0  0  0  0  0  0999 V2000
   -7.9200    5.8934   67.7202 N   0  0  0  0  0  0
   -8.4724    4.7543   68.8238 S   0  0  0  0  0  0
   -8.8773    3.6102   68.0644 O   0  0  0  0  0  0
   -7.4390    4.6939   69.8471 O   0  0  0  0  0  0
   -9.9124    5.5343   69.4947 C   0  0  0  0  0  0
  -11.0454    5.7125   68.7001 C   0  0  0  0  0  0
  -12.1686    6.3437   69.2359 C   0  0  0  0  0  0
  -12.1696    6.8148   70.5595 C   0  0  0  0  0  0
  -13.3973    7.4959   71.1326 C   0  0  0  0  0  0
  -13.2922    9.0059   71.2164 C   0  0  0  0  0  0
  -13.5515    9.6795   72.4163 C   0  0  0  0  0  0
  -13.4832   11.0727   72.4749 C   0  0  0  0  0  0
  -13.1557   11.8170   71.3386 C   0  0  0  0  0  0
  -12.9278   11.1723   70.1266 C   0  0  0  0  0  0
  -12.6944   11.8409   68.9057 N   0  0  0  0  0  0
  -12.2732   13.1511   68.6924 C   0  0  0  0  0  0
  -12.0467   13.9911   69.5517 O   0  0  0  0  0  0
  -12.1078   13.3738   67.3287 N   0  0  0  0  0  0
  -11.6779   14.5165   66.6822 C   0  0  0  0  0  0
  -11.5624   14.6014   65.3388 C   0  0  0  0  0  0
  -11.9323   13.4880   64.3727 C   0  0  0  0  0  0
  -10.7672   12.9291   63.5491 C   0  0  0  0  0  0
   -9.8276   12.2026   64.3882 N   0  0  0  0  0  0
  -10.0288   10.8804   64.6967 C   0  0  0  0  0  0
  -11.0474   10.2862   64.3588 O   0  0  0  0  0  0
   -8.9370   10.2511   65.5708 C   0  0  0  0  0  0
   -8.9034   10.9251   66.9523 C   0  0  0  0  0  0
  -10.0681   10.4978   67.8529 C   0  0  0  0  0  0
  -10.2160    8.9803   67.9561 C   0  0  0  0  0  0
   -9.1645    8.4446   68.7612 O   0  0  0  0  0  0
  -10.2297    8.3029   66.5842 C   0  0  0  0  0  0
   -9.0516    8.7260   65.7063 C   0  0  0  0  0  0
  -11.0567   15.8898   64.7093 C   0  0  0  0  0  0
  -10.1961   16.6805   65.6752 C   0  0  0  0  0  0
   -9.1627   17.2183   65.2885 O   0  0  0  0  0  0
  -10.6956   16.8037   66.9458 N   0  0  0  0  0  0
  -11.3875   15.8035   67.3963 C   0  0  0  0  0  0
  -12.9783    9.7662   70.0793 C   0  0  0  0  0  0
  -11.0238    6.6207   71.3474 C   0  0  0  0  0  0
   -9.8942    5.9853   70.8173 C   0  0  0  0  0  0
   -8.0245    6.8265   68.1183 H   0  0  0  0  0  0
   -8.3997    5.7702   66.8282 H   0  0  0  0  0  0
  -13.0282   11.3364   68.0993 H   0  0  0  0  0  0
  -12.2100   12.5453   66.7678 H   0  0  0  0  0  0
   -8.9141   12.6018   64.5661 H   0  0  0  0  0  0
   -9.2312    8.8402   69.6458 H   0  0  0  0  0  0
  1  2  1  0  0  0
  1 41  1  0  0  0
  1 42  1  0  0  0
  2  3  2  0  0  0
  2  4  2  0  0  0
  2  5  1  0  0  0
  5  6  2  0  0  0
  5 40  1  0  0  0
  6  7  1  0  0  0
  7  8  2  0  0  0
  8  9  1  0  0  0
  8 39  1  0  0  0
  9 10  1  0  0  0
 10 11  2  0  0  0
 10 38  1  0  0  0
 11 12  1  0  0  0
 12 13  2  0  0  0
 13 14  1  0  0  0
 14 15  1  0  0  0
 14 38  2  0  0  0
 15 16  1  0  0  0
 15 43  1  0  0  0
 16 17  2  0  0  0
 16 18  1  0  0  0
 18 19  1  0  0  0
 18 44  1  0  0  0
 19 20  2  0  0  0
 19 37  1  0  0  0
 20 21  1  0  0  0
 20 33  1  0  0  0
 21 22  1  0  0  0
 22 23  1  0  0  0
 23 24  1  0  0  0
 23 45  1  0  0  0
 24 25  2  0  0  0
 24 26  1  0  0  0
 26 27  1  0  0  0
 26 32  1  0  0  0
 27 28  1  0  0  0
 28 29  1  0  0  0
 29 30  1  0  0  0
 29 31  1  0  0  0
 30 46  1  0  0  0
 31 32  1  0  0  0
 33 34  1  0  0  0
 34 35  2  0  0  0
 34 36  1  0  0  0
 36 37  2  0  0  0
 39 40  2  0  0  0
M  END
>  <AUTHOR>
    GENERATED BY OPEN BABEL 2.3.2

>  <CHROM.1>
154.27072465,68.98301333,-103.02472118,-127.71015255,19.99061771,-179.91290603
-116.80580388,68.29382830,85.08192049,64.28885986,60.42621993,-10.76953505
10.18283223,67.99212313,-1.38588220,0.92225818,-0.51464872

>  <COMPND>
    UNNAMED

>  <MASTER>
        0    0    0    0    0    0    0    0   73    0   73    0

>  <Name>
ligands/mol4.pdb

>  <RI>
1.19883e+07

>  <Rbt.Current_Directory>
/home/rodrigo/Desktop/Rodrigo/Proyectos/test_OCONDOR/OCONDOR

>  <Rbt.Executable>
rbdock ($Id: //depot/dev/client3/rdock/2013.1/src/exe/rbdock.cxx#4 $)

>  <Rbt.Library>
libRbt.so (2013.1, Build901 2013/11/27)

>  <Rbt.Parameter_File>
dock.prm

>  <Rbt.Receptor>
rdock.prm

>  <SCORE>
-25.1827

>  <SCORE.INTER>
-14.5271

>  <SCORE.INTER.CONST>
1

>  <SCORE.INTER.POLAR>
-1.2916

>  <SCORE.INTER.REPUL>
0.00453112

>  <SCORE.INTER.ROT>
10

>  <SCORE.INTER.VDW>
-25.5583

>  <SCORE.INTER.norm>
-0.363177

>  <SCORE.INTRA>
-10.6557

>  <SCORE.INTRA.DIHEDRAL>
0.279806

>  <SCORE.INTRA.DIHEDRAL.0>
8.51926

>  <SCORE.INTRA.POLAR>
-1

>  <SCORE.INTRA.POLAR.0>
0

>  <SCORE.INTRA.REPUL>
0

>  <SCORE.INTRA.REPUL.0>
0

>  <SCORE.INTRA.VDW>
-7.39556

>  <SCORE.INTRA.VDW.0>
-1.46228

>  <SCORE.INTRA.norm>
-0.266391

>  <SCORE.RESTR>
0

>  <SCORE.RESTR.CAVITY>
0

>  <SCORE.RESTR.norm>
0

>  <SCORE.SYSTEM>
0

>  <SCORE.SYSTEM.CONST>
0

>  <SCORE.SYSTEM.DIHEDRAL>
0

>  <SCORE.SYSTEM.norm>
0

>  <SCORE.heavy>
40

>  <SCORE.norm>
-0.629569

$$$$
ligands/mol4.pdb
  rDOCK(R)          3D
libRbt.so/2013.1/901 2013/11/27
 46 49  0  0  0  0  0  0  0  0999 V2000
   -8.5806   21.3760   66.9382 N   0  0  0  0  0  0
   -7.6083   20.1487   66.3308 S   0  0  0  0  0  0
   -7.0754   20.6237   65.0898 O   0  0  0  0  0  0
   -6.7650   19.7523   67.4490 O   0  0  0  0  0  0
   -8.7761   18.8617   65.9964 C   0  0  0  0  0  0
   -8.3753   17.5258   66.0370 C   0  0  0  0  0  0
   -9.3016   16.5210   65.7553 C   0  0  0  0  0  0
  -10.6283   16.8362   65.4176 C   0  0  0  0  0  0
  -11.6277   15.7358   65.1171 C   0  0  0  0  0  0
  -11.0253   14.3463   65.0492 C   0  0  0  0  0  0
  -10.2441   13.9536   63.9554 C   0  0  0  0  0  0
   -9.7207   12.6612   63.8873 C   0  0  0  0  0  0
   -9.9674   11.7392   64.9078 C   0  0  0  0  0  0
  -10.7695   12.0953   65.9878 C   0  0  0  0  0  0
  -11.1603   11.2052   67.0112 N   0  0  0  0  0  0
  -10.8981    9.8429   67.1331 C   0  0  0  0  0  0
  -10.2838    9.1466   66.3374 O   0  0  0  0  0  0
  -11.4170    9.3718   68.3354 N   0  0  0  0  0  0
  -11.3574    8.0976   68.8657 C   0  0  0  0  0  0
  -11.9044    7.7713   70.0573 C   0  0  0  0  0  0
  -12.6891    8.7329   70.9344 C   0  0  0  0  0  0
  -11.8689    9.4391   72.0191 C   0  0  0  0  0  0
  -11.1901    8.4805   72.8765 N   0  0  0  0  0  0
   -9.8199    8.4143   72.9194 C   0  0  0  0  0  0
   -9.1171    9.0896   72.1746 O   0  0  0  0  0  0
   -9.2571    7.3684   73.8898 C   0  0  0  0  0  0
   -8.5808    6.2272   73.1126 C   0  0  0  0  0  0
   -7.2196    6.6262   72.5313 C   0  0  0  0  0  0
   -6.2867    7.2471   73.5701 C   0  0  0  0  0  0
   -5.8094    6.2357   74.4588 O   0  0  0  0  0  0
   -6.9618    8.3702   74.3601 C   0  0  0  0  0  0
   -8.3089    7.9496   74.9483 C   0  0  0  0  0  0
  -11.7710    6.3496   70.5797 C   0  0  0  0  0  0
  -10.5551    5.6550   69.9986 C   0  0  0  0  0  0
   -9.8389    4.9579   70.7110 O   0  0  0  0  0  0
  -10.3806    5.8033   68.6470 N   0  0  0  0  0  0
  -10.7647    6.9303   68.1329 C   0  0  0  0  0  0
  -11.2774   13.4063   66.0603 C   0  0  0  0  0  0
  -11.0168   18.1851   65.3886 C   0  0  0  0  0  0
  -10.0935   19.1984   65.6732 C   0  0  0  0  0  0
   -9.3483   21.5498   66.2898 H   0  0  0  0  0  0
   -8.0127   22.2006   67.1345 H   0  0  0  0  0  0
  -11.8433   11.5925   67.6436 H   0  0  0  0  0  0
  -11.7776   10.0963   68.9324 H   0  0  0  0  0  0
  -11.7149    8.0118   73.6048 H   0  0  0  0  0  0
   -6.5759    5.8443   74.9091 H   0  0  0  0  0  0
  1  2  1  0  0  0
  1 41  1  0  0  0
  1 42  1  0  0  0
  2  3  2  0  0  0
  2  4  2  0  0  0
  2  5  1  0  0  0
  5  6  2  0  0  0
  5 40  1  0  0  0
  6  7  1  0  0  0
  7  8  2  0  0  0
  8  9  1  0  0  0
  8 39  1  0  0  0
  9 10  1  0  0  0
 10 11  2  0  0  0
 10 38  1  0  0  0
 11 12  1  0  0  0
 12 13  2  0  0  0
 13 14  1  0  0  0
 14 15  1  0  0  0
 14 38  2  0  0  0
 15 16  1  0  0  0
 15 43  1  0  0  0
 16 17  2  0  0  0
 16 18  1  0  0  0
 18 19  1  0  0  0
 18 44  1  0  0  0
 19 20  2  0  0  0
 19 37  1  0  0  0
 20 21  1  0  0  0
 20 33  1  0  0  0
 21 22  1  0  0  0
 22 23  1  0  0  0
 23 24  1  0  0  0
 23 45  1  0  0  0
 24 25  2  0  0  0
 24 26  1  0  0  0
 26 27  1  0  0  0
 26 32  1  0  0  0
 27 28  1  0  0  0
 28 29  1  0  0  0
 29 30  1  0  0  0
 29 31  1  0  0  0
 30 46  1  0  0  0
 31 32  1  0  0  0
 33 34  1  0  0  0
 34 35  2  0  0  0
 34 36  1  0  0  0
 36 37  2  0  0  0
 39 40  2  0  0  0
M  END
>  <AUTHOR>
    GENERATED BY OPEN BABEL 2.3.2

>  <CHROM.1>
62.17518951,-152.08685726,-7.16452087,-73.57233140,-2.98208748,179.77226304
-94.35284786,-56.00592924,115.75543806,111.60073264,-60.85775853,-9.63037907
11.82540811,68.72302378,-1.51065530,0.94172995,2.59184389

>  <COMPND>
    UNNAMED

>  <MASTER>
        0    0    0    0    0    0    0    0   73    0   73    0

>  <Name>
ligands/mol4.pdb

>  <RI>
1.19883e+07

>  <Rbt.Current_Directory>
/home/rodrigo/Desktop/Rodrigo/Proyectos/test_OCONDOR/OCONDOR

>  <Rbt.Executable>
rbdock ($Id: //depot/dev/client3/rdock/2013.1/src/exe/rbdock.cxx#4 $)

>  <Rbt.Library>
libRbt.so (2013.1, Build901 2013/11/27)

>  <Rbt.Parameter_File>
dock.prm

>  <Rbt.Receptor>
rdock.prm

>  <SCORE>
-14.927

>  <SCORE.INTER>
-12.896

>  <SCORE.INTER.CONST>
1

>  <SCORE.INTER.POLAR>
-0.59649

>  <SCORE.INTER.REPUL>
0

>  <SCORE.INTER.ROT>
10

>  <SCORE.INTER.VDW>
-26.2679

>  <SCORE.INTER.norm>
-0.322399

>  <SCORE.INTRA>
-2.03104

>  <SCORE.INTRA.DIHEDRAL>
1.15867

>  <SCORE.INTRA.DIHEDRAL.0>
8.51926

>  <SCORE.INTRA.POLAR>
0

>  <SCORE.INTRA.POLAR.0>
0

>  <SCORE.INTRA.REPUL>
0

>  <SCORE.INTRA.REPUL.0>
0

>  <SCORE.INTRA.VDW>
-2.61038

>  <SCORE.INTRA.VDW.0>
-1.46228

>  <SCORE.INTRA.norm>
-0.0507761

>  <SCORE.RESTR>
0

>  <SCORE.RESTR.CAVITY>
0

>  <SCORE.RESTR.norm>
0

>  <SCORE.SYSTEM>
0

>  <SCORE.SYSTEM.CONST>
0

>  <SCORE.SYSTEM.DIHEDRAL>
0

>  <SCORE.SYSTEM.norm>
0

>  <SCORE.heavy>
40

>  <SCORE.norm>
-0.373176

$$$$
ligands/mol4.pdb
  rDOCK(R)          3D
libRbt.so/2013.1/901 2013/11/27
 46 49  0  0  0  0  0  0  0  0999 V2000
  -14.6452    8.9125   71.1625 N   0  0  0  0  0  0
  -13.8624    9.6184   72.4700 S   0  0  0  0  0  0
  -13.9801   11.0353   72.3024 O   0  0  0  0  0  0
  -14.3791    8.9185   73.6370 O   0  0  0  0  0  0
  -12.1760    9.1497   72.2084 C   0  0  0  0  0  0
  -11.6087    8.1263   72.9684 C   0  0  0  0  0  0
  -10.2733    7.7772   72.7640 C   0  0  0  0  0  0
   -9.4881    8.4512   71.8137 C   0  0  0  0  0  0
   -8.0388    8.0609   71.5972 C   0  0  0  0  0  0
   -7.0593    9.2133   71.7002 C   0  0  0  0  0  0
   -6.0799    9.2378   72.7007 C   0  0  0  0  0  0
   -5.2032   10.3190   72.8066 C   0  0  0  0  0  0
   -5.2886   11.3936   71.9175 C   0  0  0  0  0  0
   -6.2758   11.4081   70.9368 C   0  0  0  0  0  0
   -6.5077   12.4919   70.0628 N   0  0  0  0  0  0
   -7.3605   12.5627   68.9641 C   0  0  0  0  0  0
   -8.0651   11.6618   68.5313 O   0  0  0  0  0  0
   -7.3273   13.8461   68.4272 N   0  0  0  0  0  0
   -8.0362   14.3576   67.3575 C   0  0  0  0  0  0
   -7.9952   15.6611   67.0045 C   0  0  0  0  0  0
   -7.1387   16.7110   67.6930 C   0  0  0  0  0  0
   -5.9530   17.2241   66.8691 C   0  0  0  0  0  0
   -5.4282   18.4657   67.4148 N   0  0  0  0  0  0
   -4.6475   18.4695   68.5436 C   0  0  0  0  0  0
   -4.4385   17.4466   69.1877 O   0  0  0  0  0  0
   -4.1528   19.8545   68.9782 C   0  0  0  0  0  0
   -5.3345   20.8304   69.1006 C   0  0  0  0  0  0
   -6.1834   20.5851   70.3533 C   0  0  0  0  0  0
   -5.3521   20.5242   71.6340 C   0  0  0  0  0  0
   -4.9000   21.8342   71.9810 O   0  0  0  0  0  0
   -4.1630   19.5693   71.5104 C   0  0  0  0  0  0
   -3.3168   19.8399   70.2661 C   0  0  0  0  0  0
   -8.8271   16.1461   65.8279 C   0  0  0  0  0  0
  -10.0277   15.2516   65.5890 C   0  0  0  0  0  0
  -11.1225   15.7397   65.3244 O   0  0  0  0  0  0
   -9.7744   13.9047   65.6142 N   0  0  0  0  0  0
   -8.8455   13.5044   66.4259 C   0  0  0  0  0  0
   -7.1435   10.3054   70.8227 C   0  0  0  0  0  0
  -10.0767    9.4736   71.0525 C   0  0  0  0  0  0
  -11.4171    9.8270   71.2500 C   0  0  0  0  0  0
  -14.8345    7.9326   71.3721 H   0  0  0  0  0  0
  -14.0959    9.0538   70.3145 H   0  0  0  0  0  0
   -5.8497   13.2475   70.1737 H   0  0  0  0  0  0
   -6.7977   14.5013   68.9766 H   0  0  0  0  0  0
   -5.4510   19.3033   66.8461 H   0  0  0  0  0  0
   -5.6804   22.3880   72.1468 H   0  0  0  0  0  0
  1  2  1  0  0  0
  1 41  1  0  0  0
  1 42  1  0  0  0
  2  3  2  0  0  0
  2  4  2  0  0  0
  2  5  1  0  0  0
  5  6  2  0  0  0
  5 40  1  0  0  0
  6  7  1  0  0  0
  7  8  2  0  0  0
  8  9  1  0  0  0
  8 39  1  0  0  0
  9 10  1  0  0  0
 10 11  2  0  0  0
 10 38  1  0  0  0
 11 12  1  0  0  0
 12 13  2  0  0  0
 13 14  1  0  0  0
 14 15  1  0  0  0
 14 38  2  0  0  0
 15 16  1  0  0  0
 15 43  1  0  0  0
 16 17  2  0  0  0
 16 18  1  0  0  0
 18 19  1  0  0  0
 18 44  1  0  0  0
 19 20  2  0  0  0
 19 37  1  0  0  0
 20 21  1  0  0  0
 20 33  1  0  0  0
 21 22  1  0  0  0
 22 23  1  0  0  0
 23 24  1  0  0  0
 23 45  1  0  0  0
 24 25  2  0  0  0
 24 26  1  0  0  0
 26 27  1  0  0  0
 26 32  1  0  0  0
 27 28  1  0  0  0
 28 29  1  0  0  0
 29 30  1  0  0  0
 29 31  1  0  0  0
 30 46  1  0  0  0
 31 32  1  0  0  0
 33 34  1  0  0  0
 34 35  2  0  0  0
 34 36  1  0  0  0
 36 37  2  0  0  0
 39 40  2  0  0  0
M  END
>  <AUTHOR>
    GENERATED BY OPEN BABEL 2.3.2

>  <CHROM.1>
-163.08876454,-103.42962206,-126.83924385,116.61903218,172.45724219,174.24183302
109.34898149,163.51727883,76.31171252,52.70881321,61.84948593,-8.27289410
13.65343941,69.99922720,2.21404254,0.54519669,2.48915586

>  <COMPND>
    UNNAMED

>  <MASTER>
        0    0    0    0    0    0    0    0   73    0   73    0

>  <Name>
ligands/mol4.pdb

>  <RI>
1.19883e+07

>  <Rbt.Current_Directory>
/home/rodrigo/Desktop/Rodrigo/Proyectos/test_OCONDOR/OCONDOR

>  <Rbt.Executable>
rbdock ($Id: //depot/dev/client3/rdock/2013.1/src/exe/rbdock.cxx#4 $)

>  <Rbt.Library>
libRbt.so (2013.1, Build901 2013/11/27)

>  <Rbt.Parameter_File>
dock.prm

>  <Rbt.Receptor>
rdock.prm

>  <SCORE>
-13.1666

>  <SCORE.INTER>
-11.5754

>  <SCORE.INTER.CONST>
1

>  <SCORE.INTER.POLAR>
-1.06832

>  <SCORE.INTER.REPUL>
0.349188

>  <SCORE.INTER.ROT>
10

>  <SCORE.INTER.VDW>
-25.089

>  <SCORE.INTER.norm>
-0.289384

>  <SCORE.INTRA>
-1.59121

>  <SCORE.INTRA.DIHEDRAL>
-1.25865

>  <SCORE.INTRA.DIHEDRAL.0>
8.51926

>  <SCORE.INTRA.POLAR>
0

>  <SCORE.INTRA.POLAR.0>
0

>  <SCORE.INTRA.REPUL>
0

>  <SCORE.INTRA.REPUL.0>
0

>  <SCORE.INTRA.VDW>
-0.961885

>  <SCORE.INTRA.VDW.0>
-1.46228

>  <SCORE.INTRA.norm>
-0.0397802

>  <SCORE.RESTR>
0

>  <SCORE.RESTR.CAVITY>
0

>  <SCORE.RESTR.norm>
0

>  <SCORE.SYSTEM>
0

>  <SCORE.SYSTEM.CONST>
0

>  <SCORE.SYSTEM.DIHEDRAL>
0

>  <SCORE.SYSTEM.norm>
0

>  <SCORE.heavy>
40

>  <SCORE.norm>
-0.329164

$$$$
ligands/mol4.pdb
  rDOCK(R)          3D
libRbt.so/2013.1/901 2013/11/27
 46 49  0  0  0  0  0  0  0  0999 V2000
  -14.7472    7.6558   70.4090 N   0  0  0  0  0  0
  -14.6423    8.0515   72.0378 S   0  0  0  0  0  0
  -14.6761    9.4807   72.1157 O   0  0  0  0  0  0
  -15.6283    7.2042   72.6924 O   0  0  0  0  0  0
  -13.0182    7.4937   72.4660 C   0  0  0  0  0  0
  -12.0675    8.4018   72.9333 C   0  0  0  0  0  0
  -10.7855    7.9524   73.2519 C   0  0  0  0  0  0
  -10.4345    6.6011   73.0954 C   0  0  0  0  0  0
   -9.0394    6.1229   73.4484 C   0  0  0  0  0  0
   -7.9441    7.1344   73.1740 C   0  0  0  0  0  0
   -6.8122    7.2097   73.9950 C   0  0  0  0  0  0
   -5.8245    8.1661   73.7527 C   0  0  0  0  0  0
   -5.9489    9.0630   72.6885 C   0  0  0  0  0  0
   -7.0810    9.0303   71.8800 C   0  0  0  0  0  0
   -7.3455    9.9584   70.8500 N   0  0  0  0  0  0
   -8.2584    9.8660   69.8023 C   0  0  0  0  0  0
   -9.0003    8.9233   69.5654 O   0  0  0  0  0  0
   -8.2358   11.0407   69.0564 N   0  0  0  0  0  0
   -8.9966   11.3838   67.9556 C   0  0  0  0  0  0
   -8.9780   12.6176   67.4051 C   0  0  0  0  0  0
   -8.0948   13.7583   67.8833 C   0  0  0  0  0  0
   -6.9175   14.0978   66.9629 C   0  0  0  0  0  0
   -6.4493   15.4568   67.1833 N   0  0  0  0  0  0
   -7.2420   16.5366   66.8841 C   0  0  0  0  0  0
   -8.3317   16.4057   66.3363 O   0  0  0  0  0  0
   -6.6142   17.9007   67.1958 C   0  0  0  0  0  0
   -5.5731   18.2673   66.1255 C   0  0  0  0  0  0
   -6.2083   18.7045   64.8006 C   0  0  0  0  0  0
   -7.2621   19.7970   64.9767 C   0  0  0  0  0  0
   -6.6262   21.0383   65.2856 O   0  0  0  0  0  0
   -8.2891   19.4457   66.0551 C   0  0  0  0  0  0
   -7.6389   19.0300   67.3750 C   0  0  0  0  0  0
   -9.8665   12.9186   66.2085 C   0  0  0  0  0  0
  -11.0730   12.0015   66.1667 C   0  0  0  0  0  0
  -12.1812   12.4462   65.8822 O   0  0  0  0  0  0
  -10.8128   10.6736   66.3863 N   0  0  0  0  0  0
   -9.8450   10.4001   67.2051 C   0  0  0  0  0  0
   -8.0635    8.0504   72.1174 C   0  0  0  0  0  0
  -11.4053    5.6994   72.6310 C   0  0  0  0  0  0
  -12.6947    6.1428   72.3123 C   0  0  0  0  0  0
  -13.8087    7.6065   70.0131 H   0  0  0  0  0  0
  -15.3611    8.3168   69.9325 H   0  0  0  0  0  0
   -6.6706   10.7054   70.7969 H   0  0  0  0  0  0
   -7.6658   11.7649   69.4588 H   0  0  0  0  0  0
   -5.6305   15.6093   67.7593 H   0  0  0  0  0  0
   -7.3133   21.7223   65.3444 H   0  0  0  0  0  0
  1  2  1  0  0  0
  1 41  1  0  0  0
  1 42  1  0  0  0
  2  3  2  0  0  0
  2  4  2  0  0  0
  2  5  1  0  0  0
  5  6  2  0  0  0
  5 40  1  0  0  0
  6  7  1  0  0  0
  7  8  2  0  0  0
  8  9  1  0  0  0
  8 39  1  0  0  0
  9 10  1  0  0  0
 10 11  2  0  0  0
 10 38  1  0  0  0
 11 12  1  0  0  0
 12 13  2  0  0  0
 13 14  1  0  0  0
 14 15  1  0  0  0
 14 38  2  0  0  0
 15 16  1  0  0  0
 15 43  1  0  0  0
 16 17  2  0  0  0
 16 18  1  0  0  0
 18 19  1  0  0  0
 18 44  1  0  0  0
 19 20  2  0  0  0
 19 37  1  0  0  0
 20 21  1  0  0  0
 20 33  1  0  0  0
 21 22  1  0  0  0
 22 23  1  0  0  0
 23 24  1  0  0  0
 23 45  1  0  0  0
 24 25  2  0  0  0
 24 26  1  0  0  0
 26 27  1  0  0  0
 26 32  1  0  0  0
 27 28  1  0  0  0
 28 29  1  0  0  0
 29 30  1  0  0  0
 29 31  1  0  0  0
 30 46  1  0  0  0
 31 32  1  0  0  0
 33 34  1  0  0  0
 34 35  2  0  0  0
 34 36  1  0  0  0
 36 37  2  0  0  0
 39 40  2  0  0  0
M  END
>  <AUTHOR>
    GENERATED BY OPEN BABEL 2.3.2

>  <CHROM.1>
89.77529757,119.16888056,-34.10795504,146.44493008,164.11772560,172.71112784
106.96431231,157.96406227,-65.87675351,76.58493023,176.98054261,-9.48576817
11.54761372,69.47573479,1.91909200,0.21716514,2.51204680

>  <COMPND>
    UNNAMED

>  <MASTER>
        0    0    0    0    0    0    0    0   73    0   73    0

>  <Name>
ligands/mol4.pdb

>  <RI>
1.19883e+07

>  <Rbt.Current_Directory>
/home/rodrigo/Desktop/Rodrigo/Proyectos/test_OCONDOR/OCONDOR

>  <Rbt.Executable>
rbdock ($Id: //depot/dev/client3/rdock/2013.1/src/exe/rbdock.cxx#4 $)

>  <Rbt.Library>
libRbt.so (2013.1, Build901 2013/11/27)

>  <Rbt.Parameter_File>
dock.prm

>  <Rbt.Receptor>
rdock.prm

>  <SCORE>
-9.32888

>  <SCORE.INTER>
-9.32263

>  <SCORE.INTER.CONST>
1

>  <SCORE.INTER.POLAR>
-1.00317

>  <SCORE.INTER.REPUL>
0.0551866

>  <SCORE.INTER.ROT>
10

>  <SCORE.INTER.VDW>
-21.5878

>  <SCORE.INTER.norm>
-0.233066

>  <SCORE.INTRA>
-0.00625805

>  <SCORE.INTRA.DIHEDRAL>
1.3891

>  <SCORE.INTRA.DIHEDRAL.0>
8.51926

>  <SCORE.INTRA.POLAR>
0

>  <SCORE.INTRA.POLAR.0>
0

>  <SCORE.INTRA.REPUL>
0

>  <SCORE.INTRA.REPUL.0>
0

>  <SCORE.INTRA.VDW>
-0.700809

>  <SCORE.INTRA.VDW.0>
-1.46228

>  <SCORE.INTRA.norm>
-0.000156451

>  <SCORE.RESTR>
0

>  <SCORE.RESTR.CAVITY>
0

>  <SCORE.RESTR.norm>
0

>  <SCORE.SYSTEM>
0

>  <SCORE.SYSTEM.CONST>
0

>  <SCORE.SYSTEM.DIHEDRAL>
0

>  <SCORE.SYSTEM.norm>
0

>  <SCORE.heavy>
40

>  <SCORE.norm>
-0.233222

$$$$
ligands/mol4.pdb
  rDOCK(R)          3D
libRbt.so/2013.1/901 2013/11/27
 46 49  0  0  0  0  0  0  0  0999 V2000
   -3.5167    7.8211   71.7785 N   0  0  0  0  0  0
   -4.6369    7.2574   70.6614 S   0  0  0  0  0  0
   -4.5721    8.1387   69.5349 O   0  0  0  0  0  0
   -4.3762    5.8291   70.5590 O   0  0  0  0  0  0
   -6.1760    7.5106   71.4976 C   0  0  0  0  0  0
   -6.2819    8.4894   72.4862 C   0  0  0  0  0  0
   -7.4964    8.6681   73.1498 C   0  0  0  0  0  0
   -8.6097    7.8668   72.8462 C   0  0  0  0  0  0
   -9.9258    8.0723   73.5710 C   0  0  0  0  0  0
  -11.1515    7.9492   72.6874 C   0  0  0  0  0  0
  -12.0186    6.8564   72.8082 C   0  0  0  0  0  0
  -13.1270    6.7361   71.9679 C   0  0  0  0  0  0
  -13.3890    7.7028   70.9936 C   0  0  0  0  0  0
  -12.5225    8.7796   70.8314 C   0  0  0  0  0  0
  -12.6443    9.7471   69.8111 N   0  0  0  0  0  0
  -12.3018   11.0967   69.8398 C   0  0  0  0  0  0
  -11.8426   11.7102   70.7928 O   0  0  0  0  0  0
  -12.5287   11.6643   68.5896 N   0  0  0  0  0  0
  -12.3000   12.9609   68.1713 C   0  0  0  0  0  0
  -12.3277   13.3294   66.8717 C   0  0  0  0  0  0
  -12.6590   12.3942   65.7205 C   0  0  0  0  0  0
  -11.5120   12.1451   64.7355 C   0  0  0  0  0  0
  -10.2613   11.8936   65.4335 N   0  0  0  0  0  0
  -10.0160   10.6843   66.0345 C   0  0  0  0  0  0
  -10.8698    9.8052   66.0889 O   0  0  0  0  0  0
   -8.6431   10.5682   66.7082 C   0  0  0  0  0  0
   -8.4779   11.6606   67.7773 C   0  0  0  0  0  0
   -9.2834   11.3760   69.0502 C   0  0  0  0  0  0
   -9.0342    9.9773   69.6130 C   0  0  0  0  0  0
   -7.7369    9.9185   70.2083 O   0  0  0  0  0  0
   -9.1778    8.8881   68.5480 C   0  0  0  0  0  0
   -8.3536    9.1785   67.2934 C   0  0  0  0  0  0
  -12.0395   14.7742   66.4954 C   0  0  0  0  0  0
  -11.1858   15.4622   67.5425 C   0  0  0  0  0  0
  -10.2649   16.2004   67.2054 O   0  0  0  0  0  0
  -11.5689   15.2588   68.8429 N   0  0  0  0  0  0
  -12.0922   14.1048   69.1195 C   0  0  0  0  0  0
  -11.4181    8.9055   71.6953 C   0  0  0  0  0  0
   -8.4879    6.8914   71.8437 C   0  0  0  0  0  0
   -7.2732    6.7087   71.1716 C   0  0  0  0  0  0
   -2.5950    7.8554   71.3434 H   0  0  0  0  0  0
   -3.5529    7.2484   72.6220 H   0  0  0  0  0  0
  -13.1919    9.4364   69.0237 H   0  0  0  0  0  0
  -12.7843   10.9968   67.8822 H   0  0  0  0  0  0
   -9.4818   12.5245   65.2923 H   0  0  0  0  0  0
   -7.7264   10.5237   70.9678 H   0  0  0  0  0  0
  1  2  1  0  0  0
  1 41  1  0  0  0
  1 42  1  0  0  0
  2  3  2  0  0  0
  2  4  2  0  0  0
  2  5  1  0  0  0
  5  6  2  0  0  0
  5 40  1  0  0  0
  6  7  1  0  0  0
  7  8  2  0  0  0
  8  9  1  0  0  0
  8 39  1  0  0  0
  9 10  1  0  0  0
 10 11  2  0  0  0
 10 38  1  0  0  0
 11 12  1  0  0  0
 12 13  2  0  0  0
 13 14  1  0  0  0
 14 15  1  0  0  0
 14 38  2  0  0  0
 15 16  1  0  0  0
 15 43  1  0  0  0
 16 17  2  0  0  0
 16 18  1  0  0  0
 18 19  1  0  0  0
 18 44  1  0  0  0
 19 20  2  0  0  0
 19 37  1  0  0  0
 20 21  1  0  0  0
 20 33  1  0  0  0
 21 22  1  0  0  0
 22 23  1  0  0  0
 23 24  1  0  0  0
 23 45  1  0  0  0
 24 25  2  0  0  0
 24 26  1  0  0  0
 26 27  1  0  0  0
 26 32  1  0  0  0
 27 28  1  0  0  0
 28 29  1  0  0  0
 29 30  1  0  0  0
 29 31  1  0  0  0
 30 46  1  0  0  0
 31 32  1  0  0  0
 33 34  1  0  0  0
 34 35  2  0  0  0
 34 36  1  0  0  0
 36 37  2  0  0  0
 39 40  2  0  0  0
M  END
>  <AUTHOR>
    GENERATED BY OPEN BABEL 2.3.2

>  <CHROM.1>
-57.03513540,25.03242569,140.27020229,109.51997503,148.32431153,167.32584520
-115.27722252,44.81099887,76.06966131,58.24267685,64.45140394,-9.55746068
10.04433313,69.50920439,-0.92631402,0.22794057,-0.79767810

>  <COMPND>
    UNNAMED

>  <MASTER>
        0    0    0    0    0    0    0    0   73    0   73    0

>  <Name>
ligands/mol4.pdb

>  <RI>
1.19883e+07

>  <Rbt.Current_Directory>
/home/rodrigo/Desktop/Rodrigo/Proyectos/test_OCONDOR/OCONDOR

>  <Rbt.Executable>
rbdock ($Id: //depot/dev/client3/rdock/2013.1/src/exe/rbdock.cxx#4 $)

>  <Rbt.Library>
libRbt.so (2013.1, Build901 2013/11/27)

>  <Rbt.Parameter_File>
dock.prm

>  <Rbt.Receptor>
rdock.prm

>  <SCORE>
-14.6548

>  <SCORE.INTER>
-7.99946

>  <SCORE.INTER.CONST>
1

>  <SCORE.INTER.POLAR>
-1.35388

>  <SCORE.INTER.REPUL>
0.0121173

>  <SCORE.INTER.ROT>
10

>  <SCORE.INTER.VDW>
-18.8569

>  <SCORE.INTER.norm>
-0.199986

>  <SCORE.INTRA>
-6.66576

>  <SCORE.INTRA.DIHEDRAL>
2.17298

>  <SCORE.INTRA.DIHEDRAL.0>
8.51926

>  <SCORE.INTRA.POLAR>
0

>  <SCORE.INTRA.POLAR.0>
0

>  <SCORE.INTRA.REPUL>
0

>  <SCORE.INTRA.REPUL.0>
0

>  <SCORE.INTRA.VDW>
-7.75225

>  <SCORE.INTRA.VDW.0>
-1.46228

>  <SCORE.INTRA.norm>
-0.166644

>  <SCORE.RESTR>
0.0104069

>  <SCORE.RESTR.CAVITY>
0.0104069

>  <SCORE.RESTR.norm>
0.000260172

>  <SCORE.SYSTEM>
0

>  <SCORE.SYSTEM.CONST>
0

>  <SCORE.SYSTEM.DIHEDRAL>
0

>  <SCORE.SYSTEM.norm>
0

>  <SCORE.heavy>
40

>  <SCORE.norm>
-0.36637

$$$$
