ligands/mol9.pdb
  rDOCK(R)          3D
libRbt.so/2013.1/901 2013/11/27
 46 49  0  0  0  0  0  0  0  0999 V2000
  -11.2018   18.0876   65.1230 N   0  0  0  0  0  0
  -10.5803   16.5268   65.2445 S   0  0  0  0  0  0
  -11.4833   15.6540   64.5373 O   0  0  0  0  0  0
   -9.1679   16.5963   64.9264 O   0  0  0  0  0  0
  -10.7457   16.2310   66.9858 C   0  0  0  0  0  0
  -10.8944   17.2912   67.8799 C   0  0  0  0  0  0
  -11.0450   17.0269   69.2499 C   0  0  0  0  0  0
  -11.0148   15.7064   69.7435 C   0  0  0  0  0  0
  -11.1733   15.4106   71.2343 C   0  0  0  0  0  0
  -12.3881   14.5738   71.6232 C   0  0  0  0  0  0
  -13.5210   15.1601   72.2101 C   0  0  0  0  0  0
  -14.5552   14.3813   72.7334 C   0  0  0  0  0  0
  -14.5291   12.9985   72.5805 C   0  0  0  0  0  0
  -13.4976   12.4094   71.8482 C   0  0  0  0  0  0
  -13.5304   11.0431   71.5094 N   0  0  0  0  0  0
  -12.4449   10.2017   71.7302 C   0  0  0  0  0  0
  -11.3405   10.3404   71.2054 O   0  0  0  0  0  0
  -12.7433    9.0063   72.6512 C   0  0  0  0  0  0
  -14.4232    8.4120   72.2333 S   0  0  0  0  0  0
  -11.6414    7.9628   72.6253 C   0  0  0  0  0  0
  -10.4122    8.0577   73.2935 C   0  0  0  0  0  0
   -9.4561    7.0371   73.1844 C   0  0  0  0  0  0
   -8.0981    7.1863   73.8131 C   0  0  0  0  0  0
   -7.2700    5.9053   73.8981 C   0  0  0  0  0  0
   -8.0543    4.8411   74.4988 N   0  0  0  0  0  0
   -8.2279    3.6186   73.8915 C   0  0  0  0  0  0
   -7.7262    3.3421   72.8074 O   0  0  0  0  0  0
   -9.0714    2.6424   74.7211 C   0  0  0  0  0  0
  -10.4819    3.1811   75.0009 C   0  0  0  0  0  0
  -11.3515    3.1983   73.7427 C   0  0  0  0  0  0
  -11.4163    1.8322   73.0632 C   0  0  0  0  0  0
  -12.1806    0.9550   73.8863 O   0  0  0  0  0  0
  -10.0357    1.2217   72.8301 C   0  0  0  0  0  0
   -9.1536    1.2519   74.0815 C   0  0  0  0  0  0
   -9.7870    5.9342   72.4070 C   0  0  0  0  0  0
  -10.9544    5.8095   71.7360 N   0  0  0  0  0  0
  -11.8307    6.8302   71.8323 C   0  0  0  0  0  0
  -12.4296   13.1893   71.3803 C   0  0  0  0  0  0
  -10.7877   14.6699   68.8231 C   0  0  0  0  0  0
  -10.6882   14.9222   67.4515 C   0  0  0  0  0  0
  -10.4812   18.7672   65.3682 H   0  0  0  0  0  0
  -11.6944   18.2988   64.2517 H   0  0  0  0  0  0
  -14.1284   10.7850   70.7329 H   0  0  0  0  0  0
  -14.4894    7.5113   73.2250 H   0  0  0  0  0  0
   -8.4614    4.9880   75.4133 H   0  0  0  0  0  0
  -11.7338    0.9152   74.7508 H   0  0  0  0  0  0
  1  2  1  0  0  0
  1 41  1  0  0  0
  1 42  1  0  0  0
  2  3  2  0  0  0
  2  4  2  0  0  0
  2  5  1  0  0  0
  5  6  2  0  0  0
  5 40  1  0  0  0
  6  7  1  0  0  0
  7  8  2  0  0  0
  8  9  1  0  0  0
  8 39  1  0  0  0
  9 10  1  0  0  0
 10 11  2  0  0  0
 10 38  1  0  0  0
 11 12  1  0  0  0
 12 13  2  0  0  0
 13 14  1  0  0  0
 14 15  1  0  0  0
 14 38  2  0  0  0
 15 16  1  0  0  0
 15 43  1  0  0  0
 16 17  2  0  0  0
 16 18  1  0  0  0
 18 19  1  0  0  0
 18 20  1  0  0  0
 19 44  1  0  0  0
 20 21  2  0  0  0
 20 37  1  0  0  0
 21 22  1  0  0  0
 22 23  1  0  0  0
 22 35  2  0  0  0
 23 24  1  0  0  0
 24 25  1  0  0  0
 25 26  1  0  0  0
 25 45  1  0  0  0
 26 27  2  0  0  0
 26 28  1  0  0  0
 28 29  1  0  0  0
 28 34  1  0  0  0
 29 30  1  0  0  0
 30 31  1  0  0  0
 31 32  1  0  0  0
 31 33  1  0  0  0
 32 46  1  0  0  0
 33 34  1  0  0  0
 35 36  1  0  0  0
 36 37  2  0  0  0
 39 40  2  0  0  0
M  END
>  <AUTHOR>
    GENERATED BY OPEN BABEL 2.3.2

>  <CHROM.1>
-163.90795774,-19.36484305,117.80526640,-103.79524835,-130.81282954,-62.12268084
38.87110913,-173.94683522,77.68826329,166.79037366,-50.81481037,126.12930717
59.82076235,-58.78878660,-11.10149723,9.86844510,71.14913808,-1.68378534
-0.65641288,2.61934242

>  <COMPND>
    UNNAMED

>  <MASTER>
        0    0    0    0    0    0    0    0   74    0   74    0

>  <Name>
ligands/mol9.pdb

>  <RI>
2.26747e+07

>  <Rbt.Current_Directory>
/home/rodrigo/Desktop/Rodrigo/Proyectos/test_OCONDOR/OCONDOR

>  <Rbt.Executable>
rbdock ($Id: //depot/dev/client3/rdock/2013.1/src/exe/rbdock.cxx#4 $)

>  <Rbt.Library>
libRbt.so (2013.1, Build901 2013/11/27)

>  <Rbt.Parameter_File>
dock.prm

>  <Rbt.Receptor>
rdock.prm

>  <SCORE>
-19.2585

>  <SCORE.INTER>
-19.2097

>  <SCORE.INTER.CONST>
1

>  <SCORE.INTER.POLAR>
-1.88288

>  <SCORE.INTER.REPUL>
0

>  <SCORE.INTER.ROT>
13

>  <SCORE.INTER.VDW>
-31.2079

>  <SCORE.INTER.norm>
-0.480242

>  <SCORE.INTRA>
-0.0487877

>  <SCORE.INTRA.DIHEDRAL>
-0.552264

>  <SCORE.INTRA.DIHEDRAL.0>
10.0128

>  <SCORE.INTRA.POLAR>
0.000487999

>  <SCORE.INTRA.POLAR.0>
-0.000487999

>  <SCORE.INTRA.REPUL>
0

>  <SCORE.INTRA.REPUL.0>
0

>  <SCORE.INTRA.VDW>
0.225685

>  <SCORE.INTRA.VDW.0>
-4.23318

>  <SCORE.INTRA.norm>
-0.00121969

>  <SCORE.RESTR>
0

>  <SCORE.RESTR.CAVITY>
0

>  <SCORE.RESTR.norm>
0

>  <SCORE.SYSTEM>
0

>  <SCORE.SYSTEM.CONST>
0

>  <SCORE.SYSTEM.DIHEDRAL>
0

>  <SCORE.SYSTEM.norm>
0

>  <SCORE.heavy>
40

>  <SCORE.norm>
-0.481462

$$$$
ligands/mol9.pdb
  rDOCK(R)          3D
libRbt.so/2013.1/901 2013/11/27
 46 49  0  0  0  0  0  0  0  0999 V2000
   -8.8165   12.0209   62.1618 N   0  0  0  0  0  0
   -9.5576   10.8863   63.1620 S   0  0  0  0  0  0
  -10.5393   10.1946   62.3649 O   0  0  0  0  0  0
   -8.5080   10.1836   63.8731 O   0  0  0  0  0  0
  -10.3975   11.9450   64.3112 C   0  0  0  0  0  0
   -9.7193   12.9780   64.9583 C   0  0  0  0  0  0
  -10.4138   13.8138   65.8463 C   0  0  0  0  0  0
  -11.7810   13.6062   66.1219 C   0  0  0  0  0  0
  -12.5432   14.5091   67.0910 C   0  0  0  0  0  0
  -12.4339   14.1452   68.5684 C   0  0  0  0  0  0
  -12.8092   15.0514   69.5732 C   0  0  0  0  0  0
  -12.5416   14.7968   70.9199 C   0  0  0  0  0  0
  -11.9914   13.5766   71.3002 C   0  0  0  0  0  0
  -11.7711   12.5936   70.3346 C   0  0  0  0  0  0
  -11.3949   11.2859   70.6963 N   0  0  0  0  0  0
  -12.3061   10.3732   71.2175 C   0  0  0  0  0  0
  -13.3067   10.6824   71.8638 O   0  0  0  0  0  0
  -11.9341    8.8988   70.9845 C   0  0  0  0  0  0
  -11.1583    8.7951   69.3301 S   0  0  0  0  0  0
  -11.1346    8.3122   72.1337 C   0  0  0  0  0  0
   -9.7966    8.6082   72.4315 C   0  0  0  0  0  0
   -9.1490    7.9912   73.5119 C   0  0  0  0  0  0
   -7.6858    8.2271   73.7670 C   0  0  0  0  0  0
   -7.3578    8.9868   75.0513 C   0  0  0  0  0  0
   -8.0393    8.3790   76.1803 N   0  0  0  0  0  0
   -7.6268    7.1915   76.7398 C   0  0  0  0  0  0
   -6.6524    6.5707   76.3292 O   0  0  0  0  0  0
   -8.4807    6.7549   77.9368 C   0  0  0  0  0  0
   -9.8613    6.2347   77.5108 C   0  0  0  0  0  0
   -9.7736    4.8800   76.8060 C   0  0  0  0  0  0
   -9.0342    3.8376   77.6420 C   0  0  0  0  0  0
   -9.8525    3.4900   78.7559 O   0  0  0  0  0  0
   -7.6838    4.3376   78.1514 C   0  0  0  0  0  0
   -7.7714    5.7160   78.8127 C   0  0  0  0  0  0
   -9.8913    7.0973   74.2738 C   0  0  0  0  0  0
  -11.1782    6.7741   74.0131 N   0  0  0  0  0  0
  -11.7532    7.3568   72.9412 C   0  0  0  0  0  0
  -11.9819   12.8779   68.9772 C   0  0  0  0  0  0
  -12.4119   12.5106   65.5098 C   0  0  0  0  0  0
  -11.7393   11.7055   64.5854 C   0  0  0  0  0  0
   -8.3542   12.7325   62.7286 H   0  0  0  0  0  0
   -8.2302   11.6355   61.4174 H   0  0  0  0  0  0
  -10.4347   11.1589   70.9949 H   0  0  0  0  0  0
  -12.3094    8.8689   68.6455 H   0  0  0  0  0  0
   -8.8262    8.8607   76.5955 H   0  0  0  0  0  0
   -9.3661    2.8188   79.2674 H   0  0  0  0  0  0
  1  2  1  0  0  0
  1 41  1  0  0  0
  1 42  1  0  0  0
  2  3  2  0  0  0
  2  4  2  0  0  0
  2  5  1  0  0  0
  5  6  2  0  0  0
  5 40  1  0  0  0
  6  7  1  0  0  0
  7  8  2  0  0  0
  8  9  1  0  0  0
  8 39  1  0  0  0
  9 10  1  0  0  0
 10 11  2  0  0  0
 10 38  1  0  0  0
 11 12  1  0  0  0
 12 13  2  0  0  0
 13 14  1  0  0  0
 14 15  1  0  0  0
 14 38  2  0  0  0
 15 16  1  0  0  0
 15 43  1  0  0  0
 16 17  2  0  0  0
 16 18  1  0  0  0
 18 19  1  0  0  0
 18 20  1  0  0  0
 19 44  1  0  0  0
 20 21  2  0  0  0
 20 37  1  0  0  0
 21 22  1  0  0  0
 22 23  1  0  0  0
 22 35  2  0  0  0
 23 24  1  0  0  0
 24 25  1  0  0  0
 25 26  1  0  0  0
 25 45  1  0  0  0
 26 27  2  0  0  0
 26 28  1  0  0  0
 28 29  1  0  0  0
 28 34  1  0  0  0
 29 30  1  0  0  0
 30 31  1  0  0  0
 31 32  1  0  0  0
 31 33  1  0  0  0
 32 46  1  0  0  0
 33 34  1  0  0  0
 35 36  1  0  0  0
 36 37  2  0  0  0
 39 40  2  0  0  0
M  END
>  <AUTHOR>
    GENERATED BY OPEN BABEL 2.3.2

>  <CHROM.1>
161.08998676,-50.59223440,-84.55968502,164.70923385,75.96860269,-28.43573488
-36.37876631,-77.20565067,-72.44543422,113.41854622,50.55943117,74.78192438
73.53717319,179.38180702,-10.27371062,9.63037434,70.87901285,-1.83309163
-0.97292823,1.84329590

>  <COMPND>
    UNNAMED

>  <MASTER>
        0    0    0    0    0    0    0    0   74    0   74    0

>  <Name>
ligands/mol9.pdb

>  <RI>
2.26747e+07

>  <Rbt.Current_Directory>
/home/rodrigo/Desktop/Rodrigo/Proyectos/test_OCONDOR/OCONDOR

>  <Rbt.Executable>
rbdock ($Id: //depot/dev/client3/rdock/2013.1/src/exe/rbdock.cxx#4 $)

>  <Rbt.Library>
libRbt.so (2013.1, Build901 2013/11/27)

>  <Rbt.Parameter_File>
dock.prm

>  <Rbt.Receptor>
rdock.prm

>  <SCORE>
-20.0777

>  <SCORE.INTER>
-18.1098

>  <SCORE.INTER.CONST>
1

>  <SCORE.INTER.POLAR>
-2.39838

>  <SCORE.INTER.REPUL>
0.00179844

>  <SCORE.INTER.ROT>
13

>  <SCORE.INTER.VDW>
-28.3643

>  <SCORE.INTER.norm>
-0.452745

>  <SCORE.INTRA>
-1.96789

>  <SCORE.INTRA.DIHEDRAL>
-0.652849

>  <SCORE.INTRA.DIHEDRAL.0>
10.0128

>  <SCORE.INTRA.POLAR>
0.000487999

>  <SCORE.INTRA.POLAR.0>
-0.000487999

>  <SCORE.INTRA.REPUL>
0

>  <SCORE.INTRA.REPUL.0>
0

>  <SCORE.INTRA.VDW>
-1.64312

>  <SCORE.INTRA.VDW.0>
-4.23318

>  <SCORE.INTRA.norm>
-0.0491971

>  <SCORE.RESTR>
0

>  <SCORE.RESTR.CAVITY>
0

>  <SCORE.RESTR.norm>
0

>  <SCORE.SYSTEM>
0

>  <SCORE.SYSTEM.CONST>
0

>  <SCORE.SYSTEM.DIHEDRAL>
0

>  <SCORE.SYSTEM.norm>
0

>  <SCORE.heavy>
40

>  <SCORE.norm>
-0.501942

$$$$
ligands/mol9.pdb
  rDOCK(R)          3D
libRbt.so/2013.1/901 2013/11/27
 46 49  0  0  0  0  0  0  0  0999 V2000
   -8.5101    4.4323   76.5269 N   0  0  0  0  0  0
   -9.5909    5.6868   76.8351 S   0  0  0  0  0  0
  -10.5750    5.1820   77.7594 O   0  0  0  0  0  0
   -8.8086    6.8746   77.1147 O   0  0  0  0  0  0
  -10.3485    5.8802   75.2427 C   0  0  0  0  0  0
  -11.0003    4.8118   74.6270 C   0  0  0  0  0  0
  -11.6096    4.9990   73.3767 C   0  0  0  0  0  0
  -11.5454    6.2425   72.7152 C   0  0  0  0  0  0
  -12.2023    6.4531   71.3515 C   0  0  0  0  0  0
  -12.4154    7.9037   70.9303 C   0  0  0  0  0  0
  -13.4017    8.7014   71.5323 C   0  0  0  0  0  0
  -13.7240    9.9636   71.0294 C   0  0  0  0  0  0
  -12.9874   10.5015   69.9785 C   0  0  0  0  0  0
  -11.8910    9.7974   69.4793 C   0  0  0  0  0  0
  -11.0089   10.3820   68.5505 N   0  0  0  0  0  0
  -10.8247    9.8565   67.2758 C   0  0  0  0  0  0
  -11.0616    8.6897   66.9645 O   0  0  0  0  0  0
  -10.2208   10.8432   66.2618 C   0  0  0  0  0  0
  -10.5071   10.1435   64.5950 S   0  0  0  0  0  0
  -10.7008   12.2667   66.4788 C   0  0  0  0  0  0
   -9.8866   13.4082   66.4987 C   0  0  0  0  0  0
  -10.4372   14.6780   66.7264 C   0  0  0  0  0  0
   -9.5525   15.8874   66.8536 C   0  0  0  0  0  0
   -9.4889   16.7866   65.6201 C   0  0  0  0  0  0
   -8.2192   17.4898   65.5782 N   0  0  0  0  0  0
   -8.1291   18.8586   65.6866 C   0  0  0  0  0  0
   -9.1125   19.5760   65.8340 O   0  0  0  0  0  0
   -6.6866   19.3780   65.6419 C   0  0  0  0  0  0
   -6.6188   20.9116   65.6039 C   0  0  0  0  0  0
   -7.0302   21.5391   66.9368 C   0  0  0  0  0  0
   -6.2239   20.9883   68.1111 C   0  0  0  0  0  0
   -4.8873   21.4716   68.0064 O   0  0  0  0  0  0
   -6.2011   19.4614   68.1482 C   0  0  0  0  0  0
   -5.8356   18.8394   66.7974 C   0  0  0  0  0  0
  -11.8121   14.7525   66.9119 C   0  0  0  0  0  0
  -12.6306   13.6761   66.9137 N   0  0  0  0  0  0
  -12.0582   12.4684   66.7328 C   0  0  0  0  0  0
  -11.6116    8.5038   69.9447 C   0  0  0  0  0  0
  -10.8163    7.2732   73.3309 C   0  0  0  0  0  0
  -10.2509    7.1087   74.5990 C   0  0  0  0  0  0
   -7.9185    4.2766   77.3437 H   0  0  0  0  0  0
   -8.9237    3.5790   76.1433 H   0  0  0  0  0  0
  -10.2127   10.8775   68.9347 H   0  0  0  0  0  0
   -9.9405   11.1620   63.9310 H   0  0  0  0  0  0
   -7.3642   16.9544   65.5009 H   0  0  0  0  0  0
   -4.9257   22.4390   68.1133 H   0  0  0  0  0  0
  1  2  1  0  0  0
  1 41  1  0  0  0
  1 42  1  0  0  0
  2  3  2  0  0  0
  2  4  2  0  0  0
  2  5  1  0  0  0
  5  6  2  0  0  0
  5 40  1  0  0  0
  6  7  1  0  0  0
  7  8  2  0  0  0
  8  9  1  0  0  0
  8 39  1  0  0  0
  9 10  1  0  0  0
 10 11  2  0  0  0
 10 38  1  0  0  0
 11 12  1  0  0  0
 12 13  2  0  0  0
 13 14  1  0  0  0
 14 15  1  0  0  0
 14 38  2  0  0  0
 15 16  1  0  0  0
 15 43  1  0  0  0
 16 17  2  0  0  0
 16 18  1  0  0  0
 18 19  1  0  0  0
 18 20  1  0  0  0
 19 44  1  0  0  0
 20 21  2  0  0  0
 20 37  1  0  0  0
 21 22  1  0  0  0
 22 23  1  0  0  0
 22 35  2  0  0  0
 23 24  1  0  0  0
 24 25  1  0  0  0
 25 26  1  0  0  0
 25 45  1  0  0  0
 26 27  2  0  0  0
 26 28  1  0  0  0
 28 29  1  0  0  0
 28 34  1  0  0  0
 29 30  1  0  0  0
 30 31  1  0  0  0
 31 32  1  0  0  0
 31 33  1  0  0  0
 32 46  1  0  0  0
 33 34  1  0  0  0
 35 36  1  0  0  0
 36 37  2  0  0  0
 39 40  2  0  0  0
M  END
>  <AUTHOR>
    GENERATED BY OPEN BABEL 2.3.2

>  <CHROM.1>
-72.47122361,57.79414528,162.96548302,-72.58636582,-118.64053142,-22.38447418
-164.04802534,178.72295772,133.57275306,102.34817584,-152.71154399,-115.38933271
173.50839015,64.75642702,-9.93284546,11.87397697,69.58184112,-1.91315336
-0.95827658,-0.85878434

>  <COMPND>
    UNNAMED

>  <MASTER>
        0    0    0    0    0    0    0    0   74    0   74    0

>  <Name>
ligands/mol9.pdb

>  <RI>
2.26747e+07

>  <Rbt.Current_Directory>
/home/rodrigo/Desktop/Rodrigo/Proyectos/test_OCONDOR/OCONDOR

>  <Rbt.Executable>
rbdock ($Id: //depot/dev/client3/rdock/2013.1/src/exe/rbdock.cxx#4 $)

>  <Rbt.Library>
libRbt.so (2013.1, Build901 2013/11/27)

>  <Rbt.Parameter_File>
dock.prm

>  <Rbt.Receptor>
rdock.prm

>  <SCORE>
-13.3422

>  <SCORE.INTER>
-13.5653

>  <SCORE.INTER.CONST>
1

>  <SCORE.INTER.POLAR>
-0.8

>  <SCORE.INTER.REPUL>
0

>  <SCORE.INTER.ROT>
13

>  <SCORE.INTER.VDW>
-29.2453

>  <SCORE.INTER.norm>
-0.339132

>  <SCORE.INTRA>
0.223113

>  <SCORE.INTRA.DIHEDRAL>
0.496399

>  <SCORE.INTRA.DIHEDRAL.0>
10.0128

>  <SCORE.INTRA.POLAR>
0.000487999

>  <SCORE.INTRA.POLAR.0>
-0.000487999

>  <SCORE.INTRA.REPUL>
0

>  <SCORE.INTRA.REPUL.0>
0

>  <SCORE.INTRA.VDW>
-0.0267459

>  <SCORE.INTRA.VDW.0>
-4.23318

>  <SCORE.INTRA.norm>
0.00557782

>  <SCORE.RESTR>
0

>  <SCORE.RESTR.CAVITY>
0

>  <SCORE.RESTR.norm>
0

>  <SCORE.SYSTEM>
0

>  <SCORE.SYSTEM.CONST>
0

>  <SCORE.SYSTEM.DIHEDRAL>
0

>  <SCORE.SYSTEM.norm>
0

>  <SCORE.heavy>
40

>  <SCORE.norm>
-0.333554

$$$$
ligands/mol9.pdb
  rDOCK(R)          3D
libRbt.so/2013.1/901 2013/11/27
 46 49  0  0  0  0  0  0  0  0999 V2000
  -13.5126   15.6560   70.3661 N   0  0  0  0  0  0
  -11.9093   15.2605   70.0348 S   0  0  0  0  0  0
  -11.1990   16.4988   69.8356 O   0  0  0  0  0  0
  -11.4916   14.2819   71.0190 O   0  0  0  0  0  0
  -12.0789   14.4409   68.4706 C   0  0  0  0  0  0
  -12.1367   15.1713   67.2837 C   0  0  0  0  0  0
  -12.2492   14.4957   66.0588 C   0  0  0  0  0  0
  -12.3388   13.0894   66.0093 C   0  0  0  0  0  0
  -12.4661   12.3466   64.6799 C   0  0  0  0  0  0
  -11.2114   11.6276   64.1942 C   0  0  0  0  0  0
  -10.6248   11.9381   62.9568 C   0  0  0  0  0  0
   -9.5913   11.1632   62.4264 C   0  0  0  0  0  0
   -9.0466   10.1249   63.1758 C   0  0  0  0  0  0
   -9.4985    9.9095   64.4783 C   0  0  0  0  0  0
   -8.8511    8.9986   65.3347 N   0  0  0  0  0  0
   -9.5564    8.1800   66.2106 C   0  0  0  0  0  0
  -10.4772    7.4351   65.8762 O   0  0  0  0  0  0
   -9.1430    8.3206   67.6857 C   0  0  0  0  0  0
   -9.1309   10.1095   68.0723 S   0  0  0  0  0  0
   -9.9715    7.4449   68.6079 C   0  0  0  0  0  0
  -11.1213    7.8491   69.3015 C   0  0  0  0  0  0
  -11.8010    6.9573   70.1442 C   0  0  0  0  0  0
  -12.9701    7.4198   70.9694 C   0  0  0  0  0  0
  -13.4457    6.4400   72.0407 C   0  0  0  0  0  0
  -12.3086    5.8934   72.7595 N   0  0  0  0  0  0
  -11.4474    6.6813   73.4882 C   0  0  0  0  0  0
  -11.5861    7.8956   73.5868 O   0  0  0  0  0  0
  -10.3360    5.8849   74.1831 C   0  0  0  0  0  0
   -9.3980    5.1953   73.1818 C   0  0  0  0  0  0
   -8.5110    6.1968   72.4403 C   0  0  0  0  0  0
   -7.7238    7.0925   73.3943 C   0  0  0  0  0  0
   -6.7280    6.3013   74.0373 O   0  0  0  0  0  0
   -8.6064    7.7445   74.4569 C   0  0  0  0  0  0
   -9.5263    6.7432   75.1615 C   0  0  0  0  0  0
  -11.2977    5.6662   70.2448 C   0  0  0  0  0  0
  -10.1855    5.2401   69.6044 N   0  0  0  0  0  0
   -9.5364    6.1387   68.8361 C   0  0  0  0  0  0
  -10.5792   10.6490   64.9816 C   0  0  0  0  0  0
  -12.3532   12.3923   67.2287 C   0  0  0  0  0  0
  -12.1900   13.0552   68.4489 C   0  0  0  0  0  0
  -13.5498   16.3680   71.0963 H   0  0  0  0  0  0
  -14.0922   15.8659   69.5498 H   0  0  0  0  0  0
   -7.9143    9.2464   65.6318 H   0  0  0  0  0  0
   -8.6282    9.9688   69.3078 H   0  0  0  0  0  0
  -12.1604    4.8925   72.7549 H   0  0  0  0  0  0
   -6.2212    6.8981   74.6167 H   0  0  0  0  0  0
  1  2  1  0  0  0
  1 41  1  0  0  0
  1 42  1  0  0  0
  2  3  2  0  0  0
  2  4  2  0  0  0
  2  5  1  0  0  0
  5  6  2  0  0  0
  5 40  1  0  0  0
  6  7  1  0  0  0
  7  8  2  0  0  0
  8  9  1  0  0  0
  8 39  1  0  0  0
  9 10  1  0  0  0
 10 11  2  0  0  0
 10 38  1  0  0  0
 11 12  1  0  0  0
 12 13  2  0  0  0
 13 14  1  0  0  0
 14 15  1  0  0  0
 14 38  2  0  0  0
 15 16  1  0  0  0
 15 43  1  0  0  0
 16 17  2  0  0  0
 16 18  1  0  0  0
 18 19  1  0  0  0
 18 20  1  0  0  0
 19 44  1  0  0  0
 20 21  2  0  0  0
 20 37  1  0  0  0
 21 22  1  0  0  0
 22 23  1  0  0  0
 22 35  2  0  0  0
 23 24  1  0  0  0
 24 25  1  0  0  0
 25 26  1  0  0  0
 25 45  1  0  0  0
 26 27  2  0  0  0
 26 28  1  0  0  0
 28 29  1  0  0  0
 28 34  1  0  0  0
 29 30  1  0  0  0
 30 31  1  0  0  0
 31 32  1  0  0  0
 31 33  1  0  0  0
 32 46  1  0  0  0
 33 34  1  0  0  0
 35 36  1  0  0  0
 36 37  2  0  0  0
 39 40  2  0  0  0
M  END
>  <AUTHOR>
    GENERATED BY OPEN BABEL 2.3.2

>  <CHROM.1>
-49.61257837,83.67509300,105.19772432,-121.10877450,-141.55502346,53.38571737
49.33519116,-174.12888019,-94.37849494,-168.41521937,44.84580355,61.67918514
64.10407223,178.16379866,-10.67768876,9.79914881,69.15110376,2.07921535,1.25781121
-1.24070289

>  <COMPND>
    UNNAMED

>  <MASTER>
        0    0    0    0    0    0    0    0   74    0   74    0

>  <Name>
ligands/mol9.pdb

>  <RI>
2.26747e+07

>  <Rbt.Current_Directory>
/home/rodrigo/Desktop/Rodrigo/Proyectos/test_OCONDOR/OCONDOR

>  <Rbt.Executable>
rbdock ($Id: //depot/dev/client3/rdock/2013.1/src/exe/rbdock.cxx#4 $)

>  <Rbt.Library>
libRbt.so (2013.1, Build901 2013/11/27)

>  <Rbt.Parameter_File>
dock.prm

>  <Rbt.Receptor>
rdock.prm

>  <SCORE>
-13.8427

>  <SCORE.INTER>
-12.7266

>  <SCORE.INTER.CONST>
1

>  <SCORE.INTER.POLAR>
-0.802651

>  <SCORE.INTER.REPUL>
0

>  <SCORE.INTER.ROT>
13

>  <SCORE.INTER.VDW>
-28.3975

>  <SCORE.INTER.norm>
-0.318164

>  <SCORE.INTRA>
-1.11612

>  <SCORE.INTRA.DIHEDRAL>
-0.501243

>  <SCORE.INTRA.DIHEDRAL.0>
10.0128

>  <SCORE.INTRA.POLAR>
0.000487999

>  <SCORE.INTRA.POLAR.0>
-0.000487999

>  <SCORE.INTRA.REPUL>
0

>  <SCORE.INTRA.REPUL.0>
0

>  <SCORE.INTRA.VDW>
-0.867157

>  <SCORE.INTRA.VDW.0>
-4.23318

>  <SCORE.INTRA.norm>
-0.027903

>  <SCORE.RESTR>
0

>  <SCORE.RESTR.CAVITY>
0

>  <SCORE.RESTR.norm>
0

>  <SCORE.SYSTEM>
0

>  <SCORE.SYSTEM.CONST>
0

>  <SCORE.SYSTEM.DIHEDRAL>
0

>  <SCORE.SYSTEM.norm>
0

>  <SCORE.heavy>
40

>  <SCORE.norm>
-0.346067

$$$$
ligands/mol9.pdb
  rDOCK(R)          3D
libRbt.so/2013.1/901 2013/11/27
 46 49  0  0  0  0  0  0  0  0999 V2000
   -8.2669   20.7296   66.8268 N   0  0  0  0  0  0
   -7.7050   19.1421   66.8562 S   0  0  0  0  0  0
   -6.5127   19.0987   66.0474 O   0  0  0  0  0  0
   -7.7156   18.7037   68.2378 O   0  0  0  0  0  0
   -9.0105   18.3045   65.9954 C   0  0  0  0  0  0
  -10.1858   18.9737   65.6541 C   0  0  0  0  0  0
  -11.1933   18.2922   64.9541 C   0  0  0  0  0  0
  -11.0518   16.9302   64.6183 C   0  0  0  0  0  0
  -12.1462   16.1798   63.8602 C   0  0  0  0  0  0
  -12.1617   14.6647   64.0369 C   0  0  0  0  0  0
  -12.1954   13.8009   62.9303 C   0  0  0  0  0  0
  -12.3941   12.4273   63.0849 C   0  0  0  0  0  0
  -12.4522   11.8731   64.3599 C   0  0  0  0  0  0
  -12.2475   12.6902   65.4724 C   0  0  0  0  0  0
  -12.1110   12.1455   66.7635 N   0  0  0  0  0  0
  -10.9063   11.6206   67.2195 C   0  0  0  0  0  0
   -9.8516   12.2520   67.2792 O   0  0  0  0  0  0
  -10.9627   10.1294   67.5934 C   0  0  0  0  0  0
  -10.2226    9.1982   66.2024 S   0  0  0  0  0  0
  -10.3794    9.8518   68.9669 C   0  0  0  0  0  0
   -9.0469   10.0686   69.3464 C   0  0  0  0  0  0
   -8.6110    9.7582   70.6430 C   0  0  0  0  0  0
   -7.1606    9.8903   71.0180 C   0  0  0  0  0  0
   -6.1718    9.2328   70.0568 C   0  0  0  0  0  0
   -6.5530    7.8531   69.8128 N   0  0  0  0  0  0
   -7.1401    7.4461   68.6367 C   0  0  0  0  0  0
   -7.3735    8.2179   67.7129 O   0  0  0  0  0  0
   -7.4314    5.9409   68.5921 C   0  0  0  0  0  0
   -8.4432    5.5097   69.6638 C   0  0  0  0  0  0
   -9.8557    6.0095   69.3560 C   0  0  0  0  0  0
  -10.3279    5.5944   67.9643 C   0  0  0  0  0  0
  -10.5529    4.1871   67.9657 O   0  0  0  0  0  0
   -9.3184    5.9374   66.8706 C   0  0  0  0  0  0
   -7.8974    5.4767   67.2076 C   0  0  0  0  0  0
   -9.5535    9.2484   71.5273 C   0  0  0  0  0  0
  -10.8436    9.0118   71.1982 N   0  0  0  0  0  0
  -11.2143    9.2842   69.9303 C   0  0  0  0  0  0
  -12.1123   14.0775   65.3137 C   0  0  0  0  0  0
   -9.8876   16.2697   65.0443 C   0  0  0  0  0  0
   -8.8583   16.9552   65.6968 C   0  0  0  0  0  0
   -7.8275   21.2663   67.5752 H   0  0  0  0  0  0
   -8.2401   21.1894   65.9133 H   0  0  0  0  0  0
  -12.9442   11.7372   67.1713 H   0  0  0  0  0  0
  -10.9217    9.8245   65.2443 H   0  0  0  0  0  0
   -6.3499    7.1560   70.5174 H   0  0  0  0  0  0
   -9.6988    3.7630   68.1640 H   0  0  0  0  0  0
  1  2  1  0  0  0
  1 41  1  0  0  0
  1 42  1  0  0  0
  2  3  2  0  0  0
  2  4  2  0  0  0
  2  5  1  0  0  0
  5  6  2  0  0  0
  5 40  1  0  0  0
  6  7  1  0  0  0
  7  8  2  0  0  0
  8  9  1  0  0  0
  8 39  1  0  0  0
  9 10  1  0  0  0
 10 11  2  0  0  0
 10 38  1  0  0  0
 11 12  1  0  0  0
 12 13  2  0  0  0
 13 14  1  0  0  0
 14 15  1  0  0  0
 14 38  2  0  0  0
 15 16  1  0  0  0
 15 43  1  0  0  0
 16 17  2  0  0  0
 16 18  1  0  0  0
 18 19  1  0  0  0
 18 20  1  0  0  0
 19 44  1  0  0  0
 20 21  2  0  0  0
 20 37  1  0  0  0
 21 22  1  0  0  0
 22 23  1  0  0  0
 22 35  2  0  0  0
 23 24  1  0  0  0
 24 25  1  0  0  0
 25 26  1  0  0  0
 25 45  1  0  0  0
 26 27  2  0  0  0
 26 28  1  0  0  0
 28 29  1  0  0  0
 28 34  1  0  0  0
 29 30  1  0  0  0
 30 31  1  0  0  0
 31 32  1  0  0  0
 31 33  1  0  0  0
 32 46  1  0  0  0
 33 34  1  0  0  0
 35 36  1  0  0  0
 36 37  2  0  0  0
 39 40  2  0  0  0
M  END
>  <AUTHOR>
    GENERATED BY OPEN BABEL 2.3.2

>  <CHROM.1>
-88.17496636,-7.67339292,-156.31838106,-128.92952704,81.44283879,58.02878792
101.37147801,-48.15223079,-62.93361922,-49.46334440,-51.59372083,104.91265297
63.19164015,-61.66767217,-9.59496435,11.95186774,67.24767211,-1.62429769
0.77005429,2.90914434

>  <COMPND>
    UNNAMED

>  <MASTER>
        0    0    0    0    0    0    0    0   74    0   74    0

>  <Name>
ligands/mol9.pdb

>  <RI>
2.26747e+07

>  <Rbt.Current_Directory>
/home/rodrigo/Desktop/Rodrigo/Proyectos/test_OCONDOR/OCONDOR

>  <Rbt.Executable>
rbdock ($Id: //depot/dev/client3/rdock/2013.1/src/exe/rbdock.cxx#4 $)

>  <Rbt.Library>
libRbt.so (2013.1, Build901 2013/11/27)

>  <Rbt.Parameter_File>
dock.prm

>  <Rbt.Receptor>
rdock.prm

>  <SCORE>
-16.3041

>  <SCORE.INTER>
-12.4966

>  <SCORE.INTER.CONST>
1

>  <SCORE.INTER.POLAR>
-1.20397

>  <SCORE.INTER.REPUL>
0

>  <SCORE.INTER.ROT>
13

>  <SCORE.INTER.VDW>
-26.8031

>  <SCORE.INTER.norm>
-0.312414

>  <SCORE.INTRA>
-3.8075

>  <SCORE.INTRA.DIHEDRAL>
-1.13534

>  <SCORE.INTRA.DIHEDRAL.0>
10.0128

>  <SCORE.INTRA.POLAR>
0.000487999

>  <SCORE.INTRA.POLAR.0>
-0.000487999

>  <SCORE.INTRA.REPUL>
0

>  <SCORE.INTRA.REPUL.0>
0

>  <SCORE.INTRA.VDW>
-3.24149

>  <SCORE.INTRA.VDW.0>
-4.23318

>  <SCORE.INTRA.norm>
-0.0951875

>  <SCORE.RESTR>
0

>  <SCORE.RESTR.CAVITY>
0

>  <SCORE.RESTR.norm>
0

>  <SCORE.SYSTEM>
0

>  <SCORE.SYSTEM.CONST>
0

>  <SCORE.SYSTEM.DIHEDRAL>
0

>  <SCORE.SYSTEM.norm>
0

>  <SCORE.heavy>
40

>  <SCORE.norm>
-0.407602

$$$$
ligands/mol9.pdb
  rDOCK(R)          3D
libRbt.so/2013.1/901 2013/11/27
 46 49  0  0  0  0  0  0  0  0999 V2000
   -9.0039   18.5841   65.9514 N   0  0  0  0  0  0
  -10.6824   18.7211   65.9744 S   0  0  0  0  0  0
  -11.0752   18.8973   67.3499 O   0  0  0  0  0  0
  -11.0548   19.6651   64.9394 O   0  0  0  0  0  0
  -11.1623   17.0969   65.4465 C   0  0  0  0  0  0
  -11.5927   16.8683   64.1395 C   0  0  0  0  0  0
  -11.9456   15.5692   63.7431 C   0  0  0  0  0  0
  -11.9045   14.4942   64.6546 C   0  0  0  0  0  0
  -12.2917   13.0776   64.2319 C   0  0  0  0  0  0
  -11.1339   12.1196   63.9691 C   0  0  0  0  0  0
  -10.1105   12.4422   63.0634 C   0  0  0  0  0  0
   -9.1523   11.5007   62.6822 C   0  0  0  0  0  0
   -9.1320   10.2470   63.2855 C   0  0  0  0  0  0
  -10.0334    9.9662   64.3130 C   0  0  0  0  0  0
   -9.9277    8.7873   65.0755 N   0  0  0  0  0  0
  -10.0171    8.7956   66.4636 C   0  0  0  0  0  0
  -10.6846    9.6009   67.1119 O   0  0  0  0  0  0
   -9.1444    7.7399   67.1639 C   0  0  0  0  0  0
   -7.6151    8.5837   67.7107 S   0  0  0  0  0  0
   -9.9027    6.9750   68.2333 C   0  0  0  0  0  0
  -10.5507    7.5444   69.3389 C   0  0  0  0  0  0
  -11.2087    6.7371   70.2785 C   0  0  0  0  0  0
  -11.8116    7.3372   71.5187 C   0  0  0  0  0  0
  -11.6142    6.5302   72.8008 C   0  0  0  0  0  0
  -10.2130    6.5306   73.1819 N   0  0  0  0  0  0
   -9.8047    6.5863   74.4948 C   0  0  0  0  0  0
  -10.5950    6.6310   75.4312 O   0  0  0  0  0  0
   -8.2802    6.5487   74.6591 C   0  0  0  0  0  0
   -7.6131    7.8613   74.2230 C   0  0  0  0  0  0
   -7.9042    9.0057   75.1952 C   0  0  0  0  0  0
   -7.5270    8.6558   76.6331 C   0  0  0  0  0  0
   -6.1059    8.6012   76.7259 O   0  0  0  0  0  0
   -8.1087    7.3189   77.0884 C   0  0  0  0  0  0
   -7.8551    6.1884   76.0870 C   0  0  0  0  0  0
  -11.2030    5.3657   70.0558 C   0  0  0  0  0  0
  -10.5794    4.7757   69.0110 N   0  0  0  0  0  0
   -9.9226    5.5819   68.1522 C   0  0  0  0  0  0
  -11.0334   10.8917   64.6469 C   0  0  0  0  0  0
  -11.5386   14.7760   65.9812 C   0  0  0  0  0  0
  -11.1369   16.0576   66.3696 C   0  0  0  0  0  0
   -8.7045   17.8826   66.6293 H   0  0  0  0  0  0
   -8.5836   18.4743   65.0252 H   0  0  0  0  0  0
   -9.3616    8.0445   64.6817 H   0  0  0  0  0  0
   -8.2332    9.4489   68.5283 H   0  0  0  0  0  0
   -9.5083    6.4526   72.4601 H   0  0  0  0  0  0
   -5.8901    8.3621   77.6451 H   0  0  0  0  0  0
  1  2  1  0  0  0
  1 41  1  0  0  0
  1 42  1  0  0  0
  2  3  2  0  0  0
  2  4  2  0  0  0
  2  5  1  0  0  0
  5  6  2  0  0  0
  5 40  1  0  0  0
  6  7  1  0  0  0
  7  8  2  0  0  0
  8  9  1  0  0  0
  8 39  1  0  0  0
  9 10  1  0  0  0
 10 11  2  0  0  0
 10 38  1  0  0  0
 11 12  1  0  0  0
 12 13  2  0  0  0
 13 14  1  0  0  0
 14 15  1  0  0  0
 14 38  2  0  0  0
 15 16  1  0  0  0
 15 43  1  0  0  0
 16 17  2  0  0  0
 16 18  1  0  0  0
 18 19  1  0  0  0
 18 20  1  0  0  0
 19 44  1  0  0  0
 20 21  2  0  0  0
 20 37  1  0  0  0
 21 22  1  0  0  0
 22 23  1  0  0  0
 22 35  2  0  0  0
 23 24  1  0  0  0
 24 25  1  0  0  0
 25 26  1  0  0  0
 25 45  1  0  0  0
 26 27  2  0  0  0
 26 28  1  0  0  0
 28 29  1  0  0  0
 28 34  1  0  0  0
 29 30  1  0  0  0
 30 31  1  0  0  0
 31 32  1  0  0  0
 31 33  1  0  0  0
 32 46  1  0  0  0
 33 34  1  0  0  0
 35 36  1  0  0  0
 36 37  2  0  0  0
 39 40  2  0  0  0
M  END
>  <AUTHOR>
    GENERATED BY OPEN BABEL 2.3.2

>  <CHROM.1>
50.64846237,-102.57783179,102.16214075,-54.44010125,133.61955703,30.49194399
98.30410942,61.48079595,-57.39938328,-139.02311206,67.94014412,143.01078277
72.30008854,-179.03897531,-9.95938205,10.72345452,68.68063892,-2.42904919
1.38198194,-3.06585469

>  <COMPND>
    UNNAMED

>  <MASTER>
        0    0    0    0    0    0    0    0   74    0   74    0

>  <Name>
ligands/mol9.pdb

>  <RI>
2.26747e+07

>  <Rbt.Current_Directory>
/home/rodrigo/Desktop/Rodrigo/Proyectos/test_OCONDOR/OCONDOR

>  <Rbt.Executable>
rbdock ($Id: //depot/dev/client3/rdock/2013.1/src/exe/rbdock.cxx#4 $)

>  <Rbt.Library>
libRbt.so (2013.1, Build901 2013/11/27)

>  <Rbt.Parameter_File>
dock.prm

>  <Rbt.Receptor>
rdock.prm

>  <SCORE>
-12.8324

>  <SCORE.INTER>
-12.0966

>  <SCORE.INTER.CONST>
1

>  <SCORE.INTER.POLAR>
-0.701047

>  <SCORE.INTER.REPUL>
0.0510874

>  <SCORE.INTER.ROT>
13

>  <SCORE.INTER.VDW>
-28.3684

>  <SCORE.INTER.norm>
-0.302414

>  <SCORE.INTRA>
-0.735842

>  <SCORE.INTRA.DIHEDRAL>
-1.51814

>  <SCORE.INTRA.DIHEDRAL.0>
10.0128

>  <SCORE.INTRA.POLAR>
0.000487999

>  <SCORE.INTRA.POLAR.0>
-0.000487999

>  <SCORE.INTRA.REPUL>
0

>  <SCORE.INTRA.REPUL.0>
0

>  <SCORE.INTRA.VDW>
0.0215688

>  <SCORE.INTRA.VDW.0>
-4.23318

>  <SCORE.INTRA.norm>
-0.018396

>  <SCORE.RESTR>
0

>  <SCORE.RESTR.CAVITY>
0

>  <SCORE.RESTR.norm>
0

>  <SCORE.SYSTEM>
0

>  <SCORE.SYSTEM.CONST>
0

>  <SCORE.SYSTEM.DIHEDRAL>
0

>  <SCORE.SYSTEM.norm>
0

>  <SCORE.heavy>
40

>  <SCORE.norm>
-0.32081

$$$$
ligands/mol9.pdb
  rDOCK(R)          3D
libRbt.so/2013.1/901 2013/11/27
 46 49  0  0  0  0  0  0  0  0999 V2000
   -7.6180    9.7673   75.8747 N   0  0  0  0  0  0
   -6.8214    8.2927   75.7078 S   0  0  0  0  0  0
   -5.6154    8.5440   74.9594 O   0  0  0  0  0  0
   -6.8017    7.6602   77.0118 O   0  0  0  0  0  0
   -7.9605    7.4072   74.6757 C   0  0  0  0  0  0
   -9.2529    7.8866   74.4624 C   0  0  0  0  0  0
  -10.1260    7.1769   73.6237 C   0  0  0  0  0  0
   -9.7297    5.9668   73.0181 C   0  0  0  0  0  0
  -10.6761    5.1857   72.1073 C   0  0  0  0  0  0
  -10.7117    5.6257   70.6471 C   0  0  0  0  0  0
  -10.4787    4.7148   69.6042 C   0  0  0  0  0  0
  -10.3287    5.1431   68.2836 C   0  0  0  0  0  0
  -10.5197    6.4834   67.9621 C   0  0  0  0  0  0
  -10.9223    7.3760   68.9563 C   0  0  0  0  0  0
  -11.3074    8.6935   68.6427 N   0  0  0  0  0  0
  -10.6064    9.7991   69.1129 C   0  0  0  0  0  0
  -11.0429   10.5976   69.9413 O   0  0  0  0  0  0
   -9.2296   10.0052   68.4583 C   0  0  0  0  0  0
   -9.4216   11.3280   67.2080 S   0  0  0  0  0  0
   -8.1248   10.2080   69.4791 C   0  0  0  0  0  0
   -7.3509   11.3684   69.6241 C   0  0  0  0  0  0
   -6.3401   11.4398   70.5940 C   0  0  0  0  0  0
   -5.4407   12.6420   70.6792 C   0  0  0  0  0  0
   -6.1408   13.9649   70.9858 C   0  0  0  0  0  0
   -7.2458   14.1712   70.0666 N   0  0  0  0  0  0
   -7.0713   14.7027   68.8094 C   0  0  0  0  0  0
   -5.9716   15.0302   68.3772 O   0  0  0  0  0  0
   -8.3742   14.8043   68.0065 C   0  0  0  0  0  0
   -9.2805   15.9394   68.5048 C   0  0  0  0  0  0
   -8.7134   17.3192   68.1665 C   0  0  0  0  0  0
   -8.4160   17.4752   66.6768 C   0  0  0  0  0  0
   -9.6542   17.5318   65.9733 O   0  0  0  0  0  0
   -7.5765   16.3280   66.1181 C   0  0  0  0  0  0
   -8.1233   14.9499   66.5015 C   0  0  0  0  0  0
   -6.1556   10.3270   71.4052 C   0  0  0  0  0  0
   -6.8701    9.1848   71.2898 N   0  0  0  0  0  0
   -7.8046    9.1399   70.3183 C   0  0  0  0  0  0
  -11.0090    6.9532   70.2911 C   0  0  0  0  0  0
   -8.4476    5.4763   73.3160 C   0  0  0  0  0  0
   -7.5552    6.2039   74.1092 C   0  0  0  0  0  0
   -7.7148   10.2137   74.9622 H   0  0  0  0  0  0
   -8.4834    9.7411   76.4196 H   0  0  0  0  0  0
  -12.2946    8.8464   68.4717 H   0  0  0  0  0  0
   -8.1717   11.2336   66.7306 H   0  0  0  0  0  0
   -8.1751   13.8830   70.3442 H   0  0  0  0  0  0
   -9.4435   17.7248   65.0422 H   0  0  0  0  0  0
  1  2  1  0  0  0
  1 41  1  0  0  0
  1 42  1  0  0  0
  2  3  2  0  0  0
  2  4  2  0  0  0
  2  5  1  0  0  0
  5  6  2  0  0  0
  5 40  1  0  0  0
  6  7  1  0  0  0
  7  8  2  0  0  0
  8  9  1  0  0  0
  8 39  1  0  0  0
  9 10  1  0  0  0
 10 11  2  0  0  0
 10 38  1  0  0  0
 11 12  1  0  0  0
 12 13  2  0  0  0
 13 14  1  0  0  0
 14 15  1  0  0  0
 14 38  2  0  0  0
 15 16  1  0  0  0
 15 43  1  0  0  0
 16 17  2  0  0  0
 16 18  1  0  0  0
 18 19  1  0  0  0
 18 20  1  0  0  0
 19 44  1  0  0  0
 20 21  2  0  0  0
 20 37  1  0  0  0
 21 22  1  0  0  0
 22 23  1  0  0  0
 22 35  2  0  0  0
 23 24  1  0  0  0
 24 25  1  0  0  0
 25 26  1  0  0  0
 25 45  1  0  0  0
 26 27  2  0  0  0
 26 28  1  0  0  0
 28 29  1  0  0  0
 28 34  1  0  0  0
 29 30  1  0  0  0
 30 31  1  0  0  0
 31 32  1  0  0  0
 31 33  1  0  0  0
 32 46  1  0  0  0
 33 34  1  0  0  0
 35 36  1  0  0  0
 36 37  2  0  0  0
 39 40  2  0  0  0
M  END
>  <AUTHOR>
    GENERATED BY OPEN BABEL 2.3.2

>  <CHROM.1>
51.37873626,-12.85462795,84.71548555,125.31318629,-116.96738729,-111.35508185
101.20777258,-175.17166344,-116.72480997,61.80276618,-51.69073938,-83.32966330
73.83429833,174.17111490,-8.46841447,10.40347603,70.55628910,-1.64201830
-0.94869946,-0.65851090

>  <COMPND>
    UNNAMED

>  <MASTER>
        0    0    0    0    0    0    0    0   74    0   74    0

>  <Name>
ligands/mol9.pdb

>  <RI>
2.26747e+07

>  <Rbt.Current_Directory>
/home/rodrigo/Desktop/Rodrigo/Proyectos/test_OCONDOR/OCONDOR

>  <Rbt.Executable>
rbdock ($Id: //depot/dev/client3/rdock/2013.1/src/exe/rbdock.cxx#4 $)

>  <Rbt.Library>
libRbt.so (2013.1, Build901 2013/11/27)

>  <Rbt.Parameter_File>
dock.prm

>  <Rbt.Receptor>
rdock.prm

>  <SCORE>
-14.5177

>  <SCORE.INTER>
-10.6099

>  <SCORE.INTER.CONST>
1

>  <SCORE.INTER.POLAR>
-3.61492

>  <SCORE.INTER.REPUL>
0.0272562

>  <SCORE.INTER.ROT>
13

>  <SCORE.INTER.VDW>
-16.8555

>  <SCORE.INTER.norm>
-0.265248

>  <SCORE.INTRA>
-3.9078

>  <SCORE.INTRA.DIHEDRAL>
-1.22265

>  <SCORE.INTRA.DIHEDRAL.0>
10.0128

>  <SCORE.INTRA.POLAR>
0.000487999

>  <SCORE.INTRA.POLAR.0>
-0.000487999

>  <SCORE.INTRA.REPUL>
0

>  <SCORE.INTRA.REPUL.0>
0

>  <SCORE.INTRA.VDW>
-3.29813

>  <SCORE.INTRA.VDW.0>
-4.23318

>  <SCORE.INTRA.norm>
-0.097695

>  <SCORE.RESTR>
0

>  <SCORE.RESTR.CAVITY>
0

>  <SCORE.RESTR.norm>
0

>  <SCORE.SYSTEM>
0

>  <SCORE.SYSTEM.CONST>
0

>  <SCORE.SYSTEM.DIHEDRAL>
0

>  <SCORE.SYSTEM.norm>
0

>  <SCORE.heavy>
40

>  <SCORE.norm>
-0.362943

$$$$
ligands/mol9.pdb
  rDOCK(R)          3D
libRbt.so/2013.1/901 2013/11/27
 46 49  0  0  0  0  0  0  0  0999 V2000
   -4.5054   17.3252   67.9215 N   0  0  0  0  0  0
   -4.7078   16.2696   66.6247 S   0  0  0  0  0  0
   -4.0719   16.8748   65.4815 O   0  0  0  0  0  0
   -4.3583   14.9413   67.0879 O   0  0  0  0  0  0
   -6.4666   16.3381   66.4034 C   0  0  0  0  0  0
   -7.0761   17.4740   65.8705 C   0  0  0  0  0  0
   -8.4672   17.4925   65.6863 C   0  0  0  0  0  0
   -9.2653   16.3927   66.0626 C   0  0  0  0  0  0
  -10.7812   16.4069   65.8695 C   0  0  0  0  0  0
  -11.3775   15.1842   65.1790 C   0  0  0  0  0  0
  -12.0263   15.2904   63.9383 C   0  0  0  0  0  0
  -12.7306   14.2160   63.3908 C   0  0  0  0  0  0
  -12.7071   12.9762   64.0221 C   0  0  0  0  0  0
  -11.9257   12.8039   65.1653 C   0  0  0  0  0  0
  -11.7231   11.5285   65.7262 N   0  0  0  0  0  0
  -11.7744   11.3093   67.0989 C   0  0  0  0  0  0
  -12.6787   11.7073   67.8326 O   0  0  0  0  0  0
  -10.5525   10.5707   67.6715 C   0  0  0  0  0  0
   -9.5408   11.8121   68.5576 S   0  0  0  0  0  0
  -10.9386    9.3359   68.4652 C   0  0  0  0  0  0
  -10.6501    8.0116   68.1053 C   0  0  0  0  0  0
  -11.0726    6.9420   68.9084 C   0  0  0  0  0  0
  -10.8568    5.5199   68.4696 C   0  0  0  0  0  0
   -9.8020    4.7433   69.2560 C   0  0  0  0  0  0
  -10.2206    4.5894   70.6379 N   0  0  0  0  0  0
   -9.8692    5.4866   71.6202 C   0  0  0  0  0  0
   -9.1867    6.4800   71.3945 O   0  0  0  0  0  0
  -10.4456    5.1360   72.9977 C   0  0  0  0  0  0
   -9.3893    4.5375   73.9379 C   0  0  0  0  0  0
   -8.3673    5.5804   74.3935 C   0  0  0  0  0  0
   -9.0283    6.8028   75.0267 C   0  0  0  0  0  0
   -9.5751    6.4185   76.2854 O   0  0  0  0  0  0
  -10.1392    7.3905   74.1584 C   0  0  0  0  0  0
  -11.1312    6.3329   73.6661 C   0  0  0  0  0  0
  -11.7667    7.2533   70.0710 C   0  0  0  0  0  0
  -12.0769    8.5145   70.4474 N   0  0  0  0  0  0
  -11.6896    9.5132   69.6280 C   0  0  0  0  0  0
  -11.2725   13.9015   65.7456 C   0  0  0  0  0  0
   -8.6257   15.2969   66.6652 C   0  0  0  0  0  0
   -7.2352   15.2512   66.8045 C   0  0  0  0  0  0
   -4.5612   18.2901   67.5944 H   0  0  0  0  0  0
   -5.0831   17.1296   68.7428 H   0  0  0  0  0  0
  -11.1216   10.8983   65.2084 H   0  0  0  0  0  0
   -9.2114   12.5125   67.4622 H   0  0  0  0  0  0
  -10.8213    3.8137   70.8850 H   0  0  0  0  0  0
   -9.9377    7.2241   76.6957 H   0  0  0  0  0  0
  1  2  1  0  0  0
  1 41  1  0  0  0
  1 42  1  0  0  0
  2  3  2  0  0  0
  2  4  2  0  0  0
  2  5  1  0  0  0
  5  6  2  0  0  0
  5 40  1  0  0  0
  6  7  1  0  0  0
  7  8  2  0  0  0
  8  9  1  0  0  0
  8 39  1  0  0  0
  9 10  1  0  0  0
 10 11  2  0  0  0
 10 38  1  0  0  0
 11 12  1  0  0  0
 12 13  2  0  0  0
 13 14  1  0  0  0
 14 15  1  0  0  0
 14 38  2  0  0  0
 15 16  1  0  0  0
 15 43  1  0  0  0
 16 17  2  0  0  0
 16 18  1  0  0  0
 18 19  1  0  0  0
 18 20  1  0  0  0
 19 44  1  0  0  0
 20 21  2  0  0  0
 20 37  1  0  0  0
 21 22  1  0  0  0
 22 23  1  0  0  0
 22 35  2  0  0  0
 23 24  1  0  0  0
 24 25  1  0  0  0
 25 26  1  0  0  0
 25 45  1  0  0  0
 26 27  2  0  0  0
 26 28  1  0  0  0
 28 29  1  0  0  0
 28 34  1  0  0  0
 29 30  1  0  0  0
 30 31  1  0  0  0
 31 32  1  0  0  0
 31 33  1  0  0  0
 32 46  1  0  0  0
 33 34  1  0  0  0
 35 36  1  0  0  0
 36 37  2  0  0  0
 39 40  2  0  0  0
M  END
>  <AUTHOR>
    GENERATED BY OPEN BABEL 2.3.2

>  <CHROM.1>
36.01719742,71.92341744,130.42504503,-116.54014877,-137.23544929,48.81935755
105.25665992,-65.97669402,113.40206589,109.16787704,64.35349106,-91.98100031
104.17553178,176.31135524,-9.51617441,11.15231028,68.58165743,-1.34666372
0.53851778,2.44209601

>  <COMPND>
    UNNAMED

>  <MASTER>
        0    0    0    0    0    0    0    0   74    0   74    0

>  <Name>
ligands/mol9.pdb

>  <RI>
2.26747e+07

>  <Rbt.Current_Directory>
/home/rodrigo/Desktop/Rodrigo/Proyectos/test_OCONDOR/OCONDOR

>  <Rbt.Executable>
rbdock ($Id: //depot/dev/client3/rdock/2013.1/src/exe/rbdock.cxx#4 $)

>  <Rbt.Library>
libRbt.so (2013.1, Build901 2013/11/27)

>  <Rbt.Parameter_File>
dock.prm

>  <Rbt.Receptor>
rdock.prm

>  <SCORE>
-12.4148

>  <SCORE.INTER>
-10.3892

>  <SCORE.INTER.CONST>
1

>  <SCORE.INTER.POLAR>
-0.504529

>  <SCORE.INTER.REPUL>
0.0279373

>  <SCORE.INTER.ROT>
13

>  <SCORE.INTER.VDW>
-27.2135

>  <SCORE.INTER.norm>
-0.25973

>  <SCORE.INTRA>
-2.02563

>  <SCORE.INTRA.DIHEDRAL>
1.13464

>  <SCORE.INTRA.DIHEDRAL.0>
10.0128

>  <SCORE.INTRA.POLAR>
0.000487999

>  <SCORE.INTRA.POLAR.0>
-0.000487999

>  <SCORE.INTRA.REPUL>
0

>  <SCORE.INTRA.REPUL.0>
0

>  <SCORE.INTRA.VDW>
-2.59461

>  <SCORE.INTRA.VDW.0>
-4.23318

>  <SCORE.INTRA.norm>
-0.0506407

>  <SCORE.RESTR>
0

>  <SCORE.RESTR.CAVITY>
0

>  <SCORE.RESTR.norm>
0

>  <SCORE.SYSTEM>
0

>  <SCORE.SYSTEM.CONST>
0

>  <SCORE.SYSTEM.DIHEDRAL>
0

>  <SCORE.SYSTEM.norm>
0

>  <SCORE.heavy>
40

>  <SCORE.norm>
-0.310371

$$$$
ligands/mol9.pdb
  rDOCK(R)          3D
libRbt.so/2013.1/901 2013/11/27
 46 49  0  0  0  0  0  0  0  0999 V2000
   -4.8694   14.7131   69.5805 N   0  0  0  0  0  0
   -5.9842   15.0935   70.7844 S   0  0  0  0  0  0
   -6.4086   13.8505   71.3782 O   0  0  0  0  0  0
   -5.4206   16.1715   71.5726 O   0  0  0  0  0  0
   -7.3182   15.7492   69.8161 C   0  0  0  0  0  0
   -7.1304   16.8699   69.0072 C   0  0  0  0  0  0
   -8.1975   17.3542   68.2351 C   0  0  0  0  0  0
   -9.4686   16.7463   68.2885 C   0  0  0  0  0  0
  -10.6369   17.2704   67.4544 C   0  0  0  0  0  0
  -11.1656   16.3265   66.3789 C   0  0  0  0  0  0
  -11.0695   16.6466   65.0151 C   0  0  0  0  0  0
  -11.7109   15.8794   64.0405 C   0  0  0  0  0  0
  -12.3715   14.7091   64.4013 C   0  0  0  0  0  0
  -12.3317   14.2810   65.7288 C   0  0  0  0  0  0
  -12.8221   13.0154   66.1031 N   0  0  0  0  0  0
  -12.1072   12.1649   66.9401 C   0  0  0  0  0  0
  -12.4867   11.8063   68.0544 O   0  0  0  0  0  0
  -10.7333   11.7407   66.3932 C   0  0  0  0  0  0
   -9.4705   12.6884   67.3189 S   0  0  0  0  0  0
  -10.5548   10.2335   66.3746 C   0  0  0  0  0  0
  -11.0557    9.3408   67.3331 C   0  0  0  0  0  0
  -10.8143    7.9633   67.2253 C   0  0  0  0  0  0
  -11.2593    7.0184   68.3074 C   0  0  0  0  0  0
  -10.1465    6.4727   69.2006 C   0  0  0  0  0  0
  -10.7157    5.7894   70.3485 N   0  0  0  0  0  0
   -9.9371    5.2219   71.3309 C   0  0  0  0  0  0
   -8.7118    5.2616   71.3083 O   0  0  0  0  0  0
  -10.7546    4.5782   72.4579 C   0  0  0  0  0  0
   -9.8720    3.8201   73.4600 C   0  0  0  0  0  0
   -9.0329    4.7671   74.3195 C   0  0  0  0  0  0
   -9.8861    5.8151   75.0308 C   0  0  0  0  0  0
  -10.6486    5.1639   76.0436 O   0  0  0  0  0  0
  -10.8357    6.5464   74.0838 C   0  0  0  0  0  0
  -11.6372    5.5933   73.1927 C   0  0  0  0  0  0
  -10.0796    7.5288   66.1290 C   0  0  0  0  0  0
   -9.5677    8.3566   65.1903 N   0  0  0  0  0  0
   -9.7859    9.6778   65.3511 C   0  0  0  0  0  0
  -11.7411   15.0877   66.7129 C   0  0  0  0  0  0
   -9.6401   15.6669   69.1710 C   0  0  0  0  0  0
   -8.5686   15.1478   69.9040 C   0  0  0  0  0  0
   -4.0567   14.2546   69.9936 H   0  0  0  0  0  0
   -5.2509   14.2287   68.7642 H   0  0  0  0  0  0
  -13.4379   12.5565   65.4418 H   0  0  0  0  0  0
   -9.6838   12.0724   68.4912 H   0  0  0  0  0  0
  -11.7218    5.7571   70.4510 H   0  0  0  0  0  0
  -11.1917    4.4879   75.6000 H   0  0  0  0  0  0
  1  2  1  0  0  0
  1 41  1  0  0  0
  1 42  1  0  0  0
  2  3  2  0  0  0
  2  4  2  0  0  0
  2  5  1  0  0  0
  5  6  2  0  0  0
  5 40  1  0  0  0
  6  7  1  0  0  0
  7  8  2  0  0  0
  8  9  1  0  0  0
  8 39  1  0  0  0
  9 10  1  0  0  0
 10 11  2  0  0  0
 10 38  1  0  0  0
 11 12  1  0  0  0
 12 13  2  0  0  0
 13 14  1  0  0  0
 14 15  1  0  0  0
 14 38  2  0  0  0
 15 16  1  0  0  0
 15 43  1  0  0  0
 16 17  2  0  0  0
 16 18  1  0  0  0
 18 19  1  0  0  0
 18 20  1  0  0  0
 19 44  1  0  0  0
 20 21  2  0  0  0
 20 37  1  0  0  0
 21 22  1  0  0  0
 22 23  1  0  0  0
 22 35  2  0  0  0
 23 24  1  0  0  0
 24 25  1  0  0  0
 25 26  1  0  0  0
 25 45  1  0  0  0
 26 27  2  0  0  0
 26 28  1  0  0  0
 28 29  1  0  0  0
 28 34  1  0  0  0
 29 30  1  0  0  0
 30 31  1  0  0  0
 31 32  1  0  0  0
 31 33  1  0  0  0
 32 46  1  0  0  0
 33 34  1  0  0  0
 35 36  1  0  0  0
 36 37  2  0  0  0
 39 40  2  0  0  0
M  END
>  <AUTHOR>
    GENERATED BY OPEN BABEL 2.3.2

>  <CHROM.1>
-62.17314878,-60.11533590,115.02348651,-115.32369474,133.56518982,116.35291598
104.69967357,68.17102643,-35.80494621,-105.83293174,169.08374360,-178.78662231
173.73140568,-58.86631115,-9.73899199,11.28567506,69.09531213,-1.44611551
0.92649688,2.59271551

>  <COMPND>
    UNNAMED

>  <MASTER>
        0    0    0    0    0    0    0    0   74    0   74    0

>  <Name>
ligands/mol9.pdb

>  <RI>
2.26747e+07

>  <Rbt.Current_Directory>
/home/rodrigo/Desktop/Rodrigo/Proyectos/test_OCONDOR/OCONDOR

>  <Rbt.Executable>
rbdock ($Id: //depot/dev/client3/rdock/2013.1/src/exe/rbdock.cxx#4 $)

>  <Rbt.Library>
libRbt.so (2013.1, Build901 2013/11/27)

>  <Rbt.Parameter_File>
dock.prm

>  <Rbt.Receptor>
rdock.prm

>  <SCORE>
-11.3591

>  <SCORE.INTER>
-10.0096

>  <SCORE.INTER.CONST>
1

>  <SCORE.INTER.POLAR>
0

>  <SCORE.INTER.REPUL>
0.0215052

>  <SCORE.INTER.ROT>
13

>  <SCORE.INTER.VDW>
-28.5171

>  <SCORE.INTER.norm>
-0.25024

>  <SCORE.INTRA>
-1.34952

>  <SCORE.INTRA.DIHEDRAL>
-1.23528

>  <SCORE.INTRA.DIHEDRAL.0>
10.0128

>  <SCORE.INTRA.POLAR>
0.000487999

>  <SCORE.INTRA.POLAR.0>
-0.000487999

>  <SCORE.INTRA.REPUL>
0

>  <SCORE.INTRA.REPUL.0>
0

>  <SCORE.INTRA.VDW>
-0.733534

>  <SCORE.INTRA.VDW.0>
-4.23318

>  <SCORE.INTRA.norm>
-0.0337379

>  <SCORE.RESTR>
0

>  <SCORE.RESTR.CAVITY>
0

>  <SCORE.RESTR.norm>
0

>  <SCORE.SYSTEM>
0

>  <SCORE.SYSTEM.CONST>
0

>  <SCORE.SYSTEM.DIHEDRAL>
0

>  <SCORE.SYSTEM.norm>
0

>  <SCORE.heavy>
40

>  <SCORE.norm>
-0.283978

$$$$
ligands/mol9.pdb
  rDOCK(R)          3D
libRbt.so/2013.1/901 2013/11/27
 46 49  0  0  0  0  0  0  0  0999 V2000
   -8.3357    7.4506   63.5131 N   0  0  0  0  0  0
   -8.7818    8.6647   64.5919 S   0  0  0  0  0  0
   -7.5731    9.3362   64.9990 O   0  0  0  0  0  0
   -9.8993    9.3773   64.0051 O   0  0  0  0  0  0
   -9.3873    7.7023   65.9535 C   0  0  0  0  0  0
  -10.6976    7.8522   66.4079 C   0  0  0  0  0  0
  -11.1567    7.0622   67.4730 C   0  0  0  0  0  0
  -10.3042    6.1410   68.1155 C   0  0  0  0  0  0
  -10.7951    5.2805   69.2790 C   0  0  0  0  0  0
  -11.0614    6.0172   70.5881 C   0  0  0  0  0  0
  -10.9725    5.3610   71.8263 C   0  0  0  0  0  0
  -11.3909    5.9763   73.0079 C   0  0  0  0  0  0
  -11.8044    7.3049   72.9905 C   0  0  0  0  0  0
  -11.7361    8.0283   71.7992 C   0  0  0  0  0  0
  -11.9638    9.4175   71.7742 N   0  0  0  0  0  0
  -11.2410   10.2691   70.9452 C   0  0  0  0  0  0
  -10.0142   10.3663   70.9489 O   0  0  0  0  0  0
  -12.1068   11.1619   70.0397 C   0  0  0  0  0  0
  -12.5898   12.6236   71.0297 S   0  0  0  0  0  0
  -11.4460   11.4501   68.7040 C   0  0  0  0  0  0
  -10.4507   12.4114   68.4768 C   0  0  0  0  0  0
   -9.9213   12.6057   67.1925 C   0  0  0  0  0  0
   -8.9322   13.7073   66.9278 C   0  0  0  0  0  0
   -9.4641   15.1266   67.1189 C   0  0  0  0  0  0
   -8.4979   16.0935   66.6289 N   0  0  0  0  0  0
   -8.0155   17.1172   67.4116 C   0  0  0  0  0  0
   -8.3618   17.2777   68.5769 O   0  0  0  0  0  0
   -6.9864   17.9986   66.6928 C   0  0  0  0  0  0
   -7.6138   18.8240   65.5601 C   0  0  0  0  0  0
   -8.5153   19.9394   66.0920 C   0  0  0  0  0  0
   -7.7931   20.8441   67.0881 C   0  0  0  0  0  0
   -6.8281   21.6163   66.3784 O   0  0  0  0  0  0
   -7.0897   20.0615   68.1953 C   0  0  0  0  0  0
   -6.2272   18.9161   67.6578 C   0  0  0  0  0  0
  -10.4110   11.7994   66.1725 C   0  0  0  0  0  0
  -11.3787   10.8709   66.3461 N   0  0  0  0  0  0
  -11.8919   10.7426   67.5868 C   0  0  0  0  0  0
  -11.3761    7.3876   70.6042 C   0  0  0  0  0  0
   -8.9705    6.0716   67.6802 C   0  0  0  0  0  0
   -8.5210    6.8183   66.5869 C   0  0  0  0  0  0
   -7.7189    7.8341   62.7962 H   0  0  0  0  0  0
   -7.9919    6.5868   63.9398 H   0  0  0  0  0  0
  -12.3049    9.8342   72.6328 H   0  0  0  0  0  0
  -12.9917   13.3588   69.9823 H   0  0  0  0  0  0
   -8.1378   15.9939   65.6886 H   0  0  0  0  0  0
   -7.3199   22.1930   65.7666 H   0  0  0  0  0  0
  1  2  1  0  0  0
  1 41  1  0  0  0
  1 42  1  0  0  0
  2  3  2  0  0  0
  2  4  2  0  0  0
  2  5  1  0  0  0
  5  6  2  0  0  0
  5 40  1  0  0  0
  6  7  1  0  0  0
  7  8  2  0  0  0
  8  9  1  0  0  0
  8 39  1  0  0  0
  9 10  1  0  0  0
 10 11  2  0  0  0
 10 38  1  0  0  0
 11 12  1  0  0  0
 12 13  2  0  0  0
 13 14  1  0  0  0
 14 15  1  0  0  0
 14 38  2  0  0  0
 15 16  1  0  0  0
 15 43  1  0  0  0
 16 17  2  0  0  0
 16 18  1  0  0  0
 18 19  1  0  0  0
 18 20  1  0  0  0
 19 44  1  0  0  0
 20 21  2  0  0  0
 20 37  1  0  0  0
 21 22  1  0  0  0
 22 23  1  0  0  0
 22 35  2  0  0  0
 23 24  1  0  0  0
 24 25  1  0  0  0
 25 26  1  0  0  0
 25 45  1  0  0  0
 26 27  2  0  0  0
 26 28  1  0  0  0
 28 29  1  0  0  0
 28 34  1  0  0  0
 29 30  1  0  0  0
 30 31  1  0  0  0
 31 32  1  0  0  0
 31 33  1  0  0  0
 32 46  1  0  0  0
 33 34  1  0  0  0
 35 36  1  0  0  0
 36 37  2  0  0  0
 39 40  2  0  0  0
M  END
>  <AUTHOR>
    GENERATED BY OPEN BABEL 2.3.2

>  <CHROM.1>
-49.53801900,-121.23052980,-70.37989601,-153.38450228,142.69376686,-56.81947636
83.92925759,164.86725190,-80.10496927,-64.30233851,-170.73300250,-125.08674292
68.32839991,64.54610304,-9.76434672,11.65054484,67.98852777,-2.16511741,1.12795422
0.35975643

>  <COMPND>
    UNNAMED

>  <MASTER>
        0    0    0    0    0    0    0    0   74    0   74    0

>  <Name>
ligands/mol9.pdb

>  <RI>
2.26747e+07

>  <Rbt.Current_Directory>
/home/rodrigo/Desktop/Rodrigo/Proyectos/test_OCONDOR/OCONDOR

>  <Rbt.Executable>
rbdock ($Id: //depot/dev/client3/rdock/2013.1/src/exe/rbdock.cxx#4 $)

>  <Rbt.Library>
libRbt.so (2013.1, Build901 2013/11/27)

>  <Rbt.Parameter_File>
dock.prm

>  <Rbt.Receptor>
rdock.prm

>  <SCORE>
-10.9093

>  <SCORE.INTER>
-8.72772

>  <SCORE.INTER.CONST>
1

>  <SCORE.INTER.POLAR>
-0.848528

>  <SCORE.INTER.REPUL>
0

>  <SCORE.INTER.ROT>
13

>  <SCORE.INTER.VDW>
-24.2427

>  <SCORE.INTER.norm>
-0.218193

>  <SCORE.INTRA>
-2.18157

>  <SCORE.INTRA.DIHEDRAL>
-0.364024

>  <SCORE.INTRA.DIHEDRAL.0>
10.0128

>  <SCORE.INTRA.POLAR>
0.000487999

>  <SCORE.INTRA.POLAR.0>
-0.000487999

>  <SCORE.INTRA.REPUL>
0

>  <SCORE.INTRA.REPUL.0>
0

>  <SCORE.INTRA.VDW>
-2.00122

>  <SCORE.INTRA.VDW.0>
-4.23318

>  <SCORE.INTRA.norm>
-0.0545394

>  <SCORE.RESTR>
0

>  <SCORE.RESTR.CAVITY>
0

>  <SCORE.RESTR.norm>
0

>  <SCORE.SYSTEM>
0

>  <SCORE.SYSTEM.CONST>
0

>  <SCORE.SYSTEM.DIHEDRAL>
0

>  <SCORE.SYSTEM.norm>
0

>  <SCORE.heavy>
40

>  <SCORE.norm>
-0.272732

$$$$
