MODEL 1
REMARK VINA RESULT:      -6.8      0.000      0.000
REMARK  13 active torsions:
REMARK  status: ('A' for Active; 'I' for Inactive)
REMARK    1  A    between atoms: N_1  and  S_2 
REMARK    2  A    between atoms: S_2  and  C_5 
REMARK    3  A    between atoms: C_8  and  C_9 
REMARK    4  A    between atoms: C_9  and  C_10 
REMARK    5  A    between atoms: C_14  and  N_15 
REMARK       I    between atoms: N_15  and  C_16 
REMARK    6  A    between atoms: C_16  and  C_18 
REMARK    7  A    between atoms: C_18  and  S_19 
REMARK    8  A    between atoms: C_18  and  C_20 
REMARK    9  A    between atoms: C_22  and  C_23 
REMARK   10  A    between atoms: C_23  and  C_24 
REMARK   11  A    between atoms: C_24  and  N_25 
REMARK       I    between atoms: N_25  and  C_26 
REMARK   12  A    between atoms: C_26  and  C_28 
REMARK   13  A    between atoms: C_31  and  O_32 
ROOT
HETATM    1  C   LIG     1      -6.310 -32.483  -1.848  1.00  0.00    -0.018 A 
HETATM    2  C   LIG     1      -6.438 -31.959  -3.143  1.00  0.00    -0.066 A 
HETATM    3  C   LIG     1      -5.624 -30.901  -3.572  1.00  0.00    -0.038 A 
HETATM    4  C   LIG     1      -4.707 -30.392  -2.660  1.00  0.00     0.008 A 
HETATM    5  N   LIG     1      -4.542 -30.877  -1.409  1.00  0.00    -0.272 NA
HETATM    6  C   LIG     1      -5.315 -31.921  -1.047  1.00  0.00     0.009 A 
HETATM    7  H   LIG     1      -7.143 -32.389  -3.851  1.00  0.00     0.085 H 
HETATM    8  H   LIG     1      -4.031 -29.580  -2.918  1.00  0.00     0.115 H 
HETATM    9  H   LIG     1      -5.097 -32.319  -0.056  1.00  0.00     0.115 H 
ENDROOT
BRANCH   1  10
HETATM   10  C   LIG     1      -7.118 -33.634  -1.278  1.00  0.00     0.092 C 
HETATM   11  H   LIG     1      -6.887 -33.683  -0.207  1.00  0.00     0.078 H 
BRANCH  10  12
HETATM   12  C   LIG     1      -8.634 -33.416  -1.417  1.00  0.00     0.240 C 
HETATM   13  N   LIG     1      -9.185 -32.574  -0.457  1.00  0.00    -0.326 N 
HETATM   14  H   LIG     1      -8.754 -32.619   0.459  1.00  0.00     0.169 HD
HETATM   15  O   LIG     1      -9.284 -33.999  -2.285  1.00  0.00    -0.272 OA
BRANCH  13  16
HETATM   16  C   LIG     1     -10.537 -32.182  -0.494  1.00  0.00     0.035 C 
HETATM   17  C   LIG     1     -11.453 -32.653   0.447  1.00  0.00    -0.057 C 
HETATM   18  C   LIG     1     -12.809 -32.396   0.269  1.00  0.00    -0.080 C 
HETATM   19  H   LIG     1     -11.146 -33.281   1.280  1.00  0.00     0.086 H 
HETATM   20  C   LIG     1     -13.235 -31.620  -0.811  1.00  0.00    -0.076 C 
HETATM   21  H   LIG     1     -13.533 -32.820   0.962  1.00  0.00     0.083 H 
HETATM   22  C   LIG     1     -12.318 -30.992  -1.669  1.00  0.00    -0.052 C 
HETATM   23  H   LIG     1     -14.304 -31.518  -0.969  1.00  0.00     0.084 H 
HETATM   24  C   LIG     1     -10.964 -31.350  -1.540  1.00  0.00    -0.051 C 
HETATM   25  H   LIG     1     -10.225 -30.954  -2.232  1.00  0.00     0.087 H 
BRANCH  22  26
HETATM   26  C   LIG     1     -12.775 -29.987  -2.721  1.00  0.00    -0.017 C 
HETATM   27  H   LIG     1     -11.933 -29.765  -3.391  1.00  0.00     0.047 H 
HETATM   28  H   LIG     1     -13.536 -30.454  -3.360  1.00  0.00     0.047 H 
BRANCH  26  29
HETATM   29  C   LIG     1     -13.325 -28.665  -2.188  1.00  0.00    -0.054 A 
HETATM   30  C   LIG     1     -14.712 -28.451  -2.044  1.00  0.00    -0.075 A 
HETATM   31  C   LIG     1     -15.209 -27.235  -1.550  1.00  0.00    -0.060 A 
HETATM   32  H   LIG     1     -15.418 -29.238  -2.299  1.00  0.00     0.084 H 
HETATM   33  C   LIG     1     -14.323 -26.209  -1.226  1.00  0.00     0.074 A 
HETATM   34  H   LIG     1     -16.283 -27.099  -1.423  1.00  0.00     0.085 H 
HETATM   35  C   LIG     1     -12.950 -26.405  -1.335  1.00  0.00    -0.060 A 
HETATM   36  C   LIG     1     -12.460 -27.636  -1.780  1.00  0.00    -0.075 A 
HETATM   37  H   LIG     1     -12.250 -25.614  -1.070  1.00  0.00     0.085 H 
HETATM   38  H   LIG     1     -11.386 -27.778  -1.794  1.00  0.00     0.084 H 
BRANCH  33  39
HETATM   39  S   LIG     1     -14.918 -24.650  -0.624  1.00  0.00     0.239 S 
HETATM   40  O   LIG     1     -16.115 -24.299  -1.347  1.00  0.00    -0.206 OA
HETATM   41  O   LIG     1     -13.792 -23.744  -0.513  1.00  0.00    -0.206 OA
BRANCH  39  42
HETATM   42  N   LIG     1     -15.386 -25.066   0.939  1.00  0.00    -0.225 NA
HETATM   43  H   LIG     1     -16.396 -24.959   1.038  1.00  0.00     0.136 HD
HETATM   44  H   LIG     1     -15.026 -25.959   1.284  1.00  0.00     0.136 HD
ENDBRANCH  39  42
ENDBRANCH  33  39
ENDBRANCH  26  29
ENDBRANCH  22  26
ENDBRANCH  13  16
ENDBRANCH  10  12
BRANCH  10  45
HETATM   45  S   LIG     1      -6.748 -35.292  -1.960  1.00  0.00    -0.163 SA
HETATM   46  H   LIG     1      -7.926 -35.836  -1.617  1.00  0.00     0.102 HD
ENDBRANCH  10  45
ENDBRANCH   1  10
BRANCH   3  47
HETATM   47  C   LIG     1      -5.687 -30.409  -4.992  1.00  0.00    -0.025 C 
HETATM   48  H   LIG     1      -5.824 -31.266  -5.666  1.00  0.00     0.042 H 
HETATM   49  H   LIG     1      -4.710 -29.989  -5.264  1.00  0.00     0.042 H 
BRANCH  47  50
HETATM   50  C   LIG     1      -6.785 -29.387  -5.284  1.00  0.00    -0.001 C 
HETATM   51  H   LIG     1      -6.406 -28.542  -5.870  1.00  0.00     0.064 H 
HETATM   52  H   LIG     1      -7.210 -28.984  -4.357  1.00  0.00     0.064 H 
BRANCH  50  53
HETATM   53  N   LIG     1      -7.861 -30.009  -6.035  1.00  0.00    -0.360 N 
HETATM   54  C   LIG     1      -9.087 -30.287  -5.475  1.00  0.00     0.221 C 
HETATM   55  O   LIG     1      -9.356 -30.022  -4.309  1.00  0.00    -0.273 OA
HETATM   56  H   LIG     1      -7.720 -30.215  -7.015  1.00  0.00     0.162 HD
BRANCH  54  57
HETATM   57  C   LIG     1     -10.076 -30.919  -6.462  1.00  0.00     0.024 C 
HETATM   58  C   LIG     1      -9.435 -32.040  -7.294  1.00  0.00    -0.051 C 
HETATM   59  C   LIG     1      -9.146 -33.286  -6.455  1.00  0.00    -0.040 C 
HETATM   60  H   LIG     1      -8.506 -31.708  -7.768  1.00  0.00     0.034 H 
HETATM   61  H   LIG     1     -10.116 -32.304  -8.113  1.00  0.00     0.034 H 
HETATM   62  C   LIG     1     -10.386 -33.793  -5.722  1.00  0.00     0.035 C 
HETATM   63  H   LIG     1      -8.356 -33.058  -5.729  1.00  0.00     0.036 H 
HETATM   64  H   LIG     1      -8.761 -34.068  -7.120  1.00  0.00     0.036 H 
HETATM   65  C   LIG     1     -11.101 -32.694  -4.938  1.00  0.00    -0.040 C 
HETATM   66  H   LIG     1     -10.096 -34.604  -5.045  1.00  0.00     0.082 H 
HETATM   67  C   LIG     1     -11.344 -31.432  -5.771  1.00  0.00    -0.051 C 
HETATM   68  H   LIG     1     -10.509 -32.442  -4.052  1.00  0.00     0.036 H 
HETATM   69  H   LIG     1     -12.071 -33.060  -4.579  1.00  0.00     0.036 H 
HETATM   70  H   LIG     1     -11.775 -30.651  -5.132  1.00  0.00     0.034 H 
HETATM   71  H   LIG     1     -12.096 -31.653  -6.541  1.00  0.00     0.034 H 
HETATM   72  H   LIG     1     -10.371 -30.108  -7.142  1.00  0.00     0.054 H 
BRANCH  62  73
HETATM   73  O   LIG     1     -11.285 -34.340  -6.683  1.00  0.00    -0.396 OA
HETATM   74  H   LIG     1     -10.929 -34.121  -7.563  1.00  0.00     0.210 HD
ENDBRANCH  62  73
ENDBRANCH  54  57
ENDBRANCH  50  53
ENDBRANCH  47  50
ENDBRANCH   3  47
TORSDOF 13
ENDMDL
MODEL 2
REMARK VINA RESULT:      -6.7      3.335      5.687
REMARK  13 active torsions:
REMARK  status: ('A' for Active; 'I' for Inactive)
REMARK    1  A    between atoms: N_1  and  S_2 
REMARK    2  A    between atoms: S_2  and  C_5 
REMARK    3  A    between atoms: C_8  and  C_9 
REMARK    4  A    between atoms: C_9  and  C_10 
REMARK    5  A    between atoms: C_14  and  N_15 
REMARK       I    between atoms: N_15  and  C_16 
REMARK    6  A    between atoms: C_16  and  C_18 
REMARK    7  A    between atoms: C_18  and  S_19 
REMARK    8  A    between atoms: C_18  and  C_20 
REMARK    9  A    between atoms: C_22  and  C_23 
REMARK   10  A    between atoms: C_23  and  C_24 
REMARK   11  A    between atoms: C_24  and  N_25 
REMARK       I    between atoms: N_25  and  C_26 
REMARK   12  A    between atoms: C_26  and  C_28 
REMARK   13  A    between atoms: C_31  and  O_32 
ROOT
HETATM    1  C   LIG     1     -12.701 -31.779  -1.447  1.00  0.00    -0.018 A 
HETATM    2  C   LIG     1     -11.441 -31.799  -2.062  1.00  0.00    -0.066 A 
HETATM    3  C   LIG     1     -10.339 -32.381  -1.420  1.00  0.00    -0.038 A 
HETATM    4  C   LIG     1     -10.547 -32.916  -0.155  1.00  0.00     0.008 A 
HETATM    5  N   LIG     1     -11.748 -32.931   0.467  1.00  0.00    -0.272 NA
HETATM    6  C   LIG     1     -12.792 -32.398  -0.199  1.00  0.00     0.009 A 
HETATM    7  H   LIG     1     -11.304 -31.399  -3.065  1.00  0.00     0.085 H 
HETATM    8  H   LIG     1      -9.748 -33.396   0.405  1.00  0.00     0.115 H 
HETATM    9  H   LIG     1     -13.749 -32.495   0.313  1.00  0.00     0.115 H 
ENDROOT
BRANCH   1  10
HETATM   10  C   LIG     1     -13.968 -31.197  -2.047  1.00  0.00     0.092 C 
HETATM   11  H   LIG     1     -14.811 -31.666  -1.525  1.00  0.00     0.078 H 
BRANCH  10  12
HETATM   12  C   LIG     1     -14.077 -29.678  -1.834  1.00  0.00     0.240 C 
HETATM   13  N   LIG     1     -14.707 -29.306  -0.650  1.00  0.00    -0.326 N 
HETATM   14  H   LIG     1     -15.448 -29.924  -0.341  1.00  0.00     0.169 HD
HETATM   15  O   LIG     1     -13.678 -28.885  -2.687  1.00  0.00    -0.272 OA
BRANCH  13  16
HETATM   16  C   LIG     1     -14.801 -27.962  -0.244  1.00  0.00     0.035 C 
HETATM   17  C   LIG     1     -14.224 -27.523   0.948  1.00  0.00    -0.057 C 
HETATM   18  C   LIG     1     -14.497 -26.238   1.408  1.00  0.00    -0.080 C 
HETATM   19  H   LIG     1     -13.625 -28.183   1.570  1.00  0.00     0.086 H 
HETATM   20  C   LIG     1     -15.291 -25.379   0.645  1.00  0.00    -0.076 C 
HETATM   21  H   LIG     1     -14.106 -25.917   2.371  1.00  0.00     0.083 H 
HETATM   22  C   LIG     1     -15.736 -25.739  -0.637  1.00  0.00    -0.052 C 
HETATM   23  H   LIG     1     -15.558 -24.421   1.077  1.00  0.00     0.084 H 
HETATM   24  C   LIG     1     -15.544 -27.074  -1.037  1.00  0.00    -0.051 C 
HETATM   25  H   LIG     1     -15.942 -27.424  -1.986  1.00  0.00     0.087 H 
BRANCH  22  26
HETATM   26  C   LIG     1     -16.430 -24.731  -1.548  1.00  0.00    -0.017 C 
HETATM   27  H   LIG     1     -16.629 -25.207  -2.519  1.00  0.00     0.047 H 
HETATM   28  H   LIG     1     -17.419 -24.494  -1.136  1.00  0.00     0.047 H 
BRANCH  26  29
HETATM   29  C   LIG     1     -15.675 -23.427  -1.799  1.00  0.00    -0.054 A 
HETATM   30  C   LIG     1     -14.428 -23.415  -2.458  1.00  0.00    -0.075 A 
HETATM   31  C   LIG     1     -13.743 -22.213  -2.688  1.00  0.00    -0.060 A 
HETATM   32  H   LIG     1     -13.987 -24.343  -2.815  1.00  0.00     0.084 H 
HETATM   33  C   LIG     1     -14.285 -21.012  -2.231  1.00  0.00     0.074 A 
HETATM   34  H   LIG     1     -12.792 -22.222  -3.222  1.00  0.00     0.085 H 
HETATM   35  C   LIG     1     -15.524 -20.995  -1.602  1.00  0.00    -0.060 A 
HETATM   36  C   LIG     1     -16.225 -22.191  -1.421  1.00  0.00    -0.075 A 
HETATM   37  H   LIG     1     -15.963 -20.060  -1.255  1.00  0.00     0.085 H 
HETATM   38  H   LIG     1     -17.215 -22.137  -0.984  1.00  0.00     0.084 H 
BRANCH  33  39
HETATM   39  S   LIG     1     -13.432 -19.476  -2.481  1.00  0.00     0.239 S 
HETATM   40  O   LIG     1     -14.406 -18.424  -2.636  1.00  0.00    -0.206 OA
HETATM   41  O   LIG     1     -12.374 -19.695  -3.448  1.00  0.00    -0.206 OA
BRANCH  39  42
HETATM   42  N   LIG     1     -12.706 -19.263  -0.977  1.00  0.00    -0.225 NA
HETATM   43  H   LIG     1     -13.295 -19.665  -0.248  1.00  0.00     0.136 HD
HETATM   44  H   LIG     1     -11.723 -19.541  -0.919  1.00  0.00     0.136 HD
ENDBRANCH  39  42
ENDBRANCH  33  39
ENDBRANCH  26  29
ENDBRANCH  22  26
ENDBRANCH  13  16
ENDBRANCH  10  12
BRANCH  10  45
HETATM   45  S   LIG     1     -14.229 -31.509  -3.832  1.00  0.00    -0.163 SA
HETATM   46  H   LIG     1     -13.118 -32.242  -3.996  1.00  0.00     0.102 HD
ENDBRANCH  10  45
ENDBRANCH   1  10
BRANCH   3  47
HETATM   47  C   LIG     1      -9.014 -32.497  -2.122  1.00  0.00    -0.025 C 
HETATM   48  H   LIG     1      -8.211 -32.212  -1.428  1.00  0.00     0.042 H 
HETATM   49  H   LIG     1      -8.973 -31.749  -2.925  1.00  0.00     0.042 H 
BRANCH  47  50
HETATM   50  C   LIG     1      -8.691 -33.878  -2.691  1.00  0.00    -0.001 C 
HETATM   51  H   LIG     1      -9.159 -34.677  -2.106  1.00  0.00     0.064 H 
HETATM   52  H   LIG     1      -7.610 -34.062  -2.699  1.00  0.00     0.064 H 
BRANCH  50  53
HETATM   53  N   LIG     1      -9.171 -33.980  -4.058  1.00  0.00    -0.360 N 
HETATM   54  C   LIG     1      -8.465 -33.480  -5.128  1.00  0.00     0.221 C 
HETATM   55  O   LIG     1      -7.381 -32.921  -5.001  1.00  0.00    -0.273 OA
HETATM   56  H   LIG     1     -10.039 -34.467  -4.237  1.00  0.00     0.162 HD
BRANCH  54  57
HETATM   57  C   LIG     1      -9.152 -33.726  -6.477  1.00  0.00     0.024 C 
HETATM   58  C   LIG     1     -10.677 -33.841  -6.344  1.00  0.00    -0.051 C 
HETATM   59  C   LIG     1     -11.329 -32.497  -6.014  1.00  0.00    -0.040 C 
HETATM   60  H   LIG     1     -10.961 -34.569  -5.577  1.00  0.00     0.034 H 
HETATM   61  H   LIG     1     -11.086 -34.221  -7.289  1.00  0.00     0.034 H 
HETATM   62  C   LIG     1     -10.952 -31.407  -7.016  1.00  0.00     0.035 C 
HETATM   63  H   LIG     1     -11.034 -32.188  -5.005  1.00  0.00     0.036 H 
HETATM   64  H   LIG     1     -12.418 -32.634  -6.007  1.00  0.00     0.036 H 
HETATM   65  C   LIG     1      -9.444 -31.305  -7.238  1.00  0.00    -0.040 C 
HETATM   66  H   LIG     1     -11.342 -30.446  -6.664  1.00  0.00     0.082 H 
HETATM   67  C   LIG     1      -8.791 -32.661  -7.519  1.00  0.00    -0.051 C 
HETATM   68  H   LIG     1      -8.982 -30.850  -6.355  1.00  0.00     0.036 H 
HETATM   69  H   LIG     1      -9.234 -30.641  -8.086  1.00  0.00     0.036 H 
HETATM   70  H   LIG     1      -7.703 -32.536  -7.578  1.00  0.00     0.034 H 
HETATM   71  H   LIG     1      -9.117 -33.016  -8.506  1.00  0.00     0.034 H 
HETATM   72  H   LIG     1      -8.761 -34.689  -6.834  1.00  0.00     0.054 H 
BRANCH  62  73
HETATM   73  O   LIG     1     -11.586 -31.698  -8.259  1.00  0.00    -0.396 OA
HETATM   74  H   LIG     1     -11.693 -32.665  -8.304  1.00  0.00     0.210 HD
ENDBRANCH  62  73
ENDBRANCH  54  57
ENDBRANCH  50  53
ENDBRANCH  47  50
ENDBRANCH   3  47
TORSDOF 13
ENDMDL
MODEL 3
REMARK VINA RESULT:      -6.6      2.793      6.758
REMARK  13 active torsions:
REMARK  status: ('A' for Active; 'I' for Inactive)
REMARK    1  A    between atoms: N_1  and  S_2 
REMARK    2  A    between atoms: S_2  and  C_5 
REMARK    3  A    between atoms: C_8  and  C_9 
REMARK    4  A    between atoms: C_9  and  C_10 
REMARK    5  A    between atoms: C_14  and  N_15 
REMARK       I    between atoms: N_15  and  C_16 
REMARK    6  A    between atoms: C_16  and  C_18 
REMARK    7  A    between atoms: C_18  and  S_19 
REMARK    8  A    between atoms: C_18  and  C_20 
REMARK    9  A    between atoms: C_22  and  C_23 
REMARK   10  A    between atoms: C_23  and  C_24 
REMARK   11  A    between atoms: C_24  and  N_25 
REMARK       I    between atoms: N_25  and  C_26 
REMARK   12  A    between atoms: C_26  and  C_28 
REMARK   13  A    between atoms: C_31  and  O_32 
ROOT
HETATM    1  C   LIG     1     -10.765 -32.304  -2.652  1.00  0.00    -0.018 A 
HETATM    2  C   LIG     1     -11.796 -31.515  -2.120  1.00  0.00    -0.066 A 
HETATM    3  C   LIG     1     -11.994 -31.436  -0.734  1.00  0.00    -0.038 A 
HETATM    4  C   LIG     1     -11.144 -32.180   0.076  1.00  0.00     0.008 A 
HETATM    5  N   LIG     1     -10.132 -32.941  -0.396  1.00  0.00    -0.272 NA
HETATM    6  C   LIG     1      -9.946 -32.959  -1.732  1.00  0.00     0.009 A 
HETATM    7  H   LIG     1     -12.434 -30.918  -2.769  1.00  0.00     0.085 H 
HETATM    8  H   LIG     1     -11.224 -32.165   1.160  1.00  0.00     0.115 H 
HETATM    9  H   LIG     1      -9.078 -33.531  -2.057  1.00  0.00     0.115 H 
ENDROOT
BRANCH   1  10
HETATM   10  C   LIG     1     -10.441 -32.454  -4.127  1.00  0.00     0.092 C 
HETATM   11  H   LIG     1     -11.267 -33.018  -4.578  1.00  0.00     0.078 H 
BRANCH  10  12
HETATM   12  C   LIG     1     -10.353 -31.100  -4.852  1.00  0.00     0.240 C 
HETATM   13  N   LIG     1      -9.933 -30.044  -4.051  1.00  0.00    -0.326 N 
HETATM   14  H   LIG     1     -10.227 -30.091  -3.082  1.00  0.00     0.169 HD
HETATM   15  O   LIG     1     -10.688 -30.987  -6.031  1.00  0.00    -0.272 OA
BRANCH  13  16
HETATM   16  C   LIG     1      -9.697 -28.758  -4.572  1.00  0.00     0.035 C 
HETATM   17  C   LIG     1      -8.403 -28.312  -4.841  1.00  0.00    -0.057 C 
HETATM   18  C   LIG     1      -8.195 -26.977  -5.175  1.00  0.00    -0.080 C 
HETATM   19  H   LIG     1      -7.539 -28.961  -4.724  1.00  0.00     0.086 H 
HETATM   20  C   LIG     1      -9.285 -26.112  -5.300  1.00  0.00    -0.076 C 
HETATM   21  H   LIG     1      -7.181 -26.609  -5.317  1.00  0.00     0.083 H 
HETATM   22  C   LIG     1     -10.605 -26.581  -5.206  1.00  0.00    -0.052 C 
HETATM   23  H   LIG     1      -9.079 -25.061  -5.471  1.00  0.00     0.084 H 
HETATM   24  C   LIG     1     -10.792 -27.902  -4.762  1.00  0.00    -0.051 C 
HETATM   25  H   LIG     1     -11.795 -28.286  -4.594  1.00  0.00     0.087 H 
BRANCH  22  26
HETATM   26  C   LIG     1     -11.792 -25.681  -5.539  1.00  0.00    -0.017 C 
HETATM   27  H   LIG     1     -11.423 -24.668  -5.749  1.00  0.00     0.047 H 
HETATM   28  H   LIG     1     -12.249 -26.020  -6.478  1.00  0.00     0.047 H 
BRANCH  26  29
HETATM   29  C   LIG     1     -12.879 -25.584  -4.470  1.00  0.00    -0.054 A 
HETATM   30  C   LIG     1     -13.033 -24.425  -3.683  1.00  0.00    -0.075 A 
HETATM   31  C   LIG     1     -14.037 -24.341  -2.706  1.00  0.00    -0.060 A 
HETATM   32  H   LIG     1     -12.384 -23.565  -3.838  1.00  0.00     0.084 H 
HETATM   33  C   LIG     1     -14.875 -25.434  -2.484  1.00  0.00     0.074 A 
HETATM   34  H   LIG     1     -14.156 -23.426  -2.126  1.00  0.00     0.085 H 
HETATM   35  C   LIG     1     -14.758 -26.579  -3.264  1.00  0.00    -0.060 A 
HETATM   36  C   LIG     1     -13.789 -26.635  -4.270  1.00  0.00    -0.075 A 
HETATM   37  H   LIG     1     -15.418 -27.431  -3.108  1.00  0.00     0.085 H 
HETATM   38  H   LIG     1     -13.766 -27.516  -4.901  1.00  0.00     0.084 H 
BRANCH  33  39
HETATM   39  S   LIG     1     -16.137 -25.373  -1.238  1.00  0.00     0.239 S 
HETATM   40  O   LIG     1     -17.426 -25.359  -1.883  1.00  0.00    -0.206 OA
HETATM   41  O   LIG     1     -15.756 -24.381  -0.253  1.00  0.00    -0.206 OA
BRANCH  39  42
HETATM   42  N   LIG     1     -15.956 -26.888  -0.524  1.00  0.00    -0.225 NA
HETATM   43  H   LIG     1     -15.766 -26.780   0.473  1.00  0.00     0.136 HD
HETATM   44  H   LIG     1     -16.692 -27.566  -0.737  1.00  0.00     0.136 HD
ENDBRANCH  39  42
ENDBRANCH  33  39
ENDBRANCH  26  29
ENDBRANCH  22  26
ENDBRANCH  13  16
ENDBRANCH  10  12
BRANCH  10  45
HETATM   45  S   LIG     1      -8.911 -33.377  -4.524  1.00  0.00    -0.163 SA
HETATM   46  H   LIG     1      -8.360 -33.236  -3.309  1.00  0.00     0.102 HD
ENDBRANCH  10  45
ENDBRANCH   1  10
BRANCH   3  47
HETATM   47  C   LIG     1     -13.029 -30.509  -0.158  1.00  0.00    -0.025 C 
HETATM   48  H   LIG     1     -12.737 -30.230   0.864  1.00  0.00     0.042 H 
HETATM   49  H   LIG     1     -13.972 -31.060  -0.041  1.00  0.00     0.042 H 
BRANCH  47  50
HETATM   50  C   LIG     1     -13.279 -29.229  -0.953  1.00  0.00    -0.001 C 
HETATM   51  H   LIG     1     -14.254 -29.245  -1.451  1.00  0.00     0.064 H 
HETATM   52  H   LIG     1     -12.514 -29.085  -1.726  1.00  0.00     0.064 H 
BRANCH  50  53
HETATM   53  N   LIG     1     -13.243 -28.076  -0.071  1.00  0.00    -0.360 N 
HETATM   54  C   LIG     1     -12.487 -26.960  -0.345  1.00  0.00     0.221 C 
HETATM   55  O   LIG     1     -11.799 -26.859  -1.355  1.00  0.00    -0.273 OA
HETATM   56  H   LIG     1     -13.821 -28.076   0.759  1.00  0.00     0.162 HD
BRANCH  54  57
HETATM   57  C   LIG     1     -12.625 -25.858   0.713  1.00  0.00     0.024 C 
HETATM   58  C   LIG     1     -12.715 -26.424   2.138  1.00  0.00    -0.051 C 
HETATM   59  C   LIG     1     -11.382 -27.008   2.610  1.00  0.00    -0.040 C 
HETATM   60  H   LIG     1     -13.488 -27.196   2.216  1.00  0.00     0.034 H 
HETATM   61  H   LIG     1     -13.020 -25.619   2.818  1.00  0.00     0.034 H 
HETATM   62  C   LIG     1     -10.236 -26.006   2.495  1.00  0.00     0.035 C 
HETATM   63  H   LIG     1     -11.150 -27.903   2.022  1.00  0.00     0.036 H 
HETATM   64  H   LIG     1     -11.496 -27.325   3.655  1.00  0.00     0.036 H 
HETATM   65  C   LIG     1     -10.152 -25.359   1.114  1.00  0.00    -0.040 C 
HETATM   66  H   LIG     1      -9.292 -26.512   2.727  1.00  0.00     0.082 H 
HETATM   67  C   LIG     1     -11.500 -24.820   0.627  1.00  0.00    -0.051 C 
HETATM   68  H   LIG     1      -9.769 -26.094   0.397  1.00  0.00     0.036 H 
HETATM   69  H   LIG     1      -9.437 -24.528   1.131  1.00  0.00     0.036 H 
HETATM   70  H   LIG     1     -11.396 -24.454  -0.402  1.00  0.00     0.034 H 
HETATM   71  H   LIG     1     -11.779 -23.952   1.239  1.00  0.00     0.034 H 
HETATM   72  H   LIG     1     -13.570 -25.346   0.482  1.00  0.00     0.054 H 
BRANCH  62  73
HETATM   73  O   LIG     1     -10.427 -24.988   3.474  1.00  0.00    -0.396 OA
HETATM   74  H   LIG     1     -10.014 -25.304   4.297  1.00  0.00     0.210 HD
ENDBRANCH  62  73
ENDBRANCH  54  57
ENDBRANCH  50  53
ENDBRANCH  47  50
ENDBRANCH   3  47
TORSDOF 13
ENDMDL
MODEL 4
REMARK VINA RESULT:      -6.5      3.273      8.926
REMARK  13 active torsions:
REMARK  status: ('A' for Active; 'I' for Inactive)
REMARK    1  A    between atoms: N_1  and  S_2 
REMARK    2  A    between atoms: S_2  and  C_5 
REMARK    3  A    between atoms: C_8  and  C_9 
REMARK    4  A    between atoms: C_9  and  C_10 
REMARK    5  A    between atoms: C_14  and  N_15 
REMARK       I    between atoms: N_15  and  C_16 
REMARK    6  A    between atoms: C_16  and  C_18 
REMARK    7  A    between atoms: C_18  and  S_19 
REMARK    8  A    between atoms: C_18  and  C_20 
REMARK    9  A    between atoms: C_22  and  C_23 
REMARK   10  A    between atoms: C_23  and  C_24 
REMARK   11  A    between atoms: C_24  and  N_25 
REMARK       I    between atoms: N_25  and  C_26 
REMARK   12  A    between atoms: C_26  and  C_28 
REMARK   13  A    between atoms: C_31  and  O_32 
ROOT
HETATM    1  C   LIG     1     -11.240 -24.946  -2.713  1.00  0.00    -0.018 A 
HETATM    2  C   LIG     1     -10.719 -25.422  -1.501  1.00  0.00    -0.066 A 
HETATM    3  C   LIG     1     -10.834 -24.667  -0.325  1.00  0.00    -0.038 A 
HETATM    4  C   LIG     1     -11.465 -23.433  -0.420  1.00  0.00     0.008 A 
HETATM    5  N   LIG     1     -11.993 -22.943  -1.565  1.00  0.00    -0.272 NA
HETATM    6  C   LIG     1     -11.898 -23.717  -2.665  1.00  0.00     0.009 A 
HETATM    7  H   LIG     1     -10.252 -26.404  -1.442  1.00  0.00     0.085 H 
HETATM    8  H   LIG     1     -11.605 -22.791   0.447  1.00  0.00     0.115 H 
HETATM    9  H   LIG     1     -12.397 -23.310  -3.545  1.00  0.00     0.115 H 
ENDROOT
BRANCH   1  10
HETATM   10  C   LIG     1     -11.193 -25.678  -4.042  1.00  0.00     0.092 C 
HETATM   11  H   LIG     1     -10.215 -25.462  -4.489  1.00  0.00     0.078 H 
BRANCH  10  12
HETATM   12  C   LIG     1     -11.303 -27.204  -3.879  1.00  0.00     0.240 C 
HETATM   13  N   LIG     1     -12.513 -27.640  -3.351  1.00  0.00    -0.326 N 
HETATM   14  H   LIG     1     -12.941 -27.018  -2.675  1.00  0.00     0.169 HD
HETATM   15  O   LIG     1     -10.357 -27.943  -4.152  1.00  0.00    -0.272 OA
BRANCH  13  16
HETATM   16  C   LIG     1     -12.826 -29.008  -3.230  1.00  0.00     0.035 C 
HETATM   17  C   LIG     1     -13.795 -29.603  -4.038  1.00  0.00    -0.057 C 
HETATM   18  C   LIG     1     -14.209 -30.903  -3.764  1.00  0.00    -0.080 C 
HETATM   19  H   LIG     1     -14.293 -29.054  -4.833  1.00  0.00     0.086 H 
HETATM   20  C   LIG     1     -13.609 -31.622  -2.728  1.00  0.00    -0.076 C 
HETATM   21  H   LIG     1     -15.014 -31.346  -4.348  1.00  0.00     0.083 H 
HETATM   22  C   LIG     1     -12.514 -31.105  -2.017  1.00  0.00    -0.052 C 
HETATM   23  H   LIG     1     -14.020 -32.596  -2.485  1.00  0.00     0.084 H 
HETATM   24  C   LIG     1     -12.183 -29.755  -2.233  1.00  0.00    -0.051 C 
HETATM   25  H   LIG     1     -11.395 -29.285  -1.649  1.00  0.00     0.087 H 
BRANCH  22  26
HETATM   26  C   LIG     1     -11.735 -31.964  -1.026  1.00  0.00    -0.017 C 
HETATM   27  H   LIG     1     -11.559 -31.382  -0.111  1.00  0.00     0.047 H 
HETATM   28  H   LIG     1     -12.360 -32.810  -0.713  1.00  0.00     0.047 H 
BRANCH  26  29
HETATM   29  C   LIG     1     -10.391 -32.500  -1.518  1.00  0.00    -0.054 A 
HETATM   30  C   LIG     1     -10.302 -33.311  -2.668  1.00  0.00    -0.075 A 
HETATM   31  C   LIG     1      -9.064 -33.797  -3.117  1.00  0.00    -0.060 A 
HETATM   32  H   LIG     1     -11.195 -33.557  -3.238  1.00  0.00     0.084 H 
HETATM   33  C   LIG     1      -7.906 -33.502  -2.397  1.00  0.00     0.074 A 
HETATM   34  H   LIG     1      -9.012 -34.401  -4.023  1.00  0.00     0.085 H 
HETATM   35  C   LIG     1      -7.966 -32.684  -1.274  1.00  0.00    -0.060 A 
HETATM   36  C   LIG     1      -9.196 -32.162  -0.863  1.00  0.00    -0.075 A 
HETATM   37  H   LIG     1      -7.066 -32.436  -0.715  1.00  0.00     0.085 H 
HETATM   38  H   LIG     1      -9.200 -31.478  -0.023  1.00  0.00     0.084 H 
BRANCH  33  39
HETATM   39  S   LIG     1      -6.328 -34.121  -2.920  1.00  0.00     0.239 S 
HETATM   40  O   LIG     1      -5.583 -34.535  -1.757  1.00  0.00    -0.206 OA
HETATM   41  O   LIG     1      -5.780 -33.204  -3.900  1.00  0.00    -0.206 OA
BRANCH  39  42
HETATM   42  N   LIG     1      -6.787 -35.520  -3.739  1.00  0.00    -0.225 NA
HETATM   43  H   LIG     1      -6.193 -35.651  -4.558  1.00  0.00     0.136 HD
HETATM   44  H   LIG     1      -6.888 -36.356  -3.159  1.00  0.00     0.136 HD
ENDBRANCH  39  42
ENDBRANCH  33  39
ENDBRANCH  26  29
ENDBRANCH  22  26
ENDBRANCH  13  16
ENDBRANCH  10  12
BRANCH  10  45
HETATM   45  S   LIG     1     -12.445 -25.178  -5.280  1.00  0.00    -0.163 SA
HETATM   46  H   LIG     1     -13.343 -26.114  -4.937  1.00  0.00     0.102 HD
ENDBRANCH  10  45
ENDBRANCH   1  10
BRANCH   3  47
HETATM   47  C   LIG     1     -10.371 -25.222   0.993  1.00  0.00    -0.025 C 
HETATM   48  H   LIG     1     -10.427 -24.435   1.757  1.00  0.00     0.042 H 
HETATM   49  H   LIG     1      -9.304 -25.468   0.918  1.00  0.00     0.042 H 
BRANCH  47  50
HETATM   50  C   LIG     1     -11.143 -26.440   1.500  1.00  0.00    -0.001 C 
HETATM   51  H   LIG     1     -10.924 -26.650   2.552  1.00  0.00     0.064 H 
HETATM   52  H   LIG     1     -10.892 -27.338   0.923  1.00  0.00     0.064 H 
BRANCH  50  53
HETATM   53  N   LIG     1     -12.572 -26.214   1.374  1.00  0.00    -0.360 N 
HETATM   54  C   LIG     1     -13.437 -27.188   0.929  1.00  0.00     0.221 C 
HETATM   55  O   LIG     1     -13.062 -28.313   0.618  1.00  0.00    -0.273 OA
HETATM   56  H   LIG     1     -12.955 -25.321   1.655  1.00  0.00     0.162 HD
BRANCH  54  57
HETATM   57  C   LIG     1     -14.902 -26.733   0.903  1.00  0.00     0.024 C 
HETATM   58  C   LIG     1     -15.060 -25.302   0.370  1.00  0.00    -0.051 C 
HETATM   59  C   LIG     1     -14.781 -25.213  -1.132  1.00  0.00    -0.040 C 
HETATM   60  H   LIG     1     -14.401 -24.602   0.894  1.00  0.00     0.034 H 
HETATM   61  H   LIG     1     -16.084 -24.962   0.570  1.00  0.00     0.034 H 
HETATM   62  C   LIG     1     -15.633 -26.190  -1.939  1.00  0.00     0.035 C 
HETATM   63  H   LIG     1     -13.719 -25.410  -1.316  1.00  0.00     0.036 H 
HETATM   64  H   LIG     1     -14.983 -24.185  -1.460  1.00  0.00     0.036 H 
HETATM   65  C   LIG     1     -15.566 -27.618  -1.400  1.00  0.00    -0.040 C 
HETATM   66  H   LIG     1     -15.306 -26.172  -2.985  1.00  0.00     0.082 H 
HETATM   67  C   LIG     1     -15.797 -27.694   0.112  1.00  0.00    -0.051 C 
HETATM   68  H   LIG     1     -14.589 -28.048  -1.644  1.00  0.00     0.036 H 
HETATM   69  H   LIG     1     -16.322 -28.242  -1.894  1.00  0.00     0.036 H 
HETATM   70  H   LIG     1     -15.647 -28.726   0.453  1.00  0.00     0.034 H 
HETATM   71  H   LIG     1     -16.847 -27.446   0.325  1.00  0.00     0.034 H 
HETATM   72  H   LIG     1     -15.234 -26.753   1.950  1.00  0.00     0.054 H 
BRANCH  62  73
HETATM   73  O   LIG     1     -16.986 -25.743  -1.906  1.00  0.00    -0.396 OA
HETATM   74  H   LIG     1     -17.395 -26.133  -1.113  1.00  0.00     0.210 HD
ENDBRANCH  62  73
ENDBRANCH  54  57
ENDBRANCH  50  53
ENDBRANCH  47  50
ENDBRANCH   3  47
TORSDOF 13
ENDMDL
MODEL 5
REMARK VINA RESULT:      -6.0      3.529      6.572
REMARK  13 active torsions:
REMARK  status: ('A' for Active; 'I' for Inactive)
REMARK    1  A    between atoms: N_1  and  S_2 
REMARK    2  A    between atoms: S_2  and  C_5 
REMARK    3  A    between atoms: C_8  and  C_9 
REMARK    4  A    between atoms: C_9  and  C_10 
REMARK    5  A    between atoms: C_14  and  N_15 
REMARK       I    between atoms: N_15  and  C_16 
REMARK    6  A    between atoms: C_16  and  C_18 
REMARK    7  A    between atoms: C_18  and  S_19 
REMARK    8  A    between atoms: C_18  and  C_20 
REMARK    9  A    between atoms: C_22  and  C_23 
REMARK   10  A    between atoms: C_23  and  C_24 
REMARK   11  A    between atoms: C_24  and  N_25 
REMARK       I    between atoms: N_25  and  C_26 
REMARK   12  A    between atoms: C_26  and  C_28 
REMARK   13  A    between atoms: C_31  and  O_32 
ROOT
HETATM    1  C   LIG     1      -9.532 -32.950  -3.270  1.00  0.00    -0.018 A 
HETATM    2  C   LIG     1      -8.976 -32.883  -1.985  1.00  0.00    -0.066 A 
HETATM    3  C   LIG     1      -7.619 -33.172  -1.775  1.00  0.00    -0.038 A 
HETATM    4  C   LIG     1      -6.866 -33.539  -2.883  1.00  0.00     0.008 A 
HETATM    5  N   LIG     1      -7.360 -33.603  -4.141  1.00  0.00    -0.272 NA
HETATM    6  C   LIG     1      -8.658 -33.278  -4.308  1.00  0.00     0.009 A 
HETATM    7  H   LIG     1      -9.575 -32.567  -1.133  1.00  0.00     0.085 H 
HETATM    8  H   LIG     1      -5.806 -33.768  -2.808  1.00  0.00     0.115 H 
HETATM    9  H   LIG     1      -8.991 -33.277  -5.346  1.00  0.00     0.115 H 
ENDROOT
BRANCH   1  10
HETATM   10  C   LIG     1     -10.976 -32.643  -3.625  1.00  0.00     0.092 C 
HETATM   11  H   LIG     1     -11.593 -33.399  -3.123  1.00  0.00     0.078 H 
BRANCH  10  12
HETATM   12  C   LIG     1     -11.427 -31.263  -3.117  1.00  0.00     0.240 C 
HETATM   13  N   LIG     1     -12.621 -31.275  -2.404  1.00  0.00    -0.326 N 
HETATM   14  H   LIG     1     -13.303 -31.958  -2.712  1.00  0.00     0.169 HD
HETATM   15  O   LIG     1     -10.787 -30.246  -3.385  1.00  0.00    -0.272 OA
BRANCH  13  16
HETATM   16  C   LIG     1     -13.129 -30.120  -1.779  1.00  0.00     0.035 C 
HETATM   17  C   LIG     1     -12.807 -29.811  -0.457  1.00  0.00    -0.057 C 
HETATM   18  C   LIG     1     -13.473 -28.771   0.184  1.00  0.00    -0.080 C 
HETATM   19  H   LIG     1     -12.101 -30.409   0.114  1.00  0.00     0.086 H 
HETATM   20  C   LIG     1     -14.409 -28.006  -0.516  1.00  0.00    -0.076 C 
HETATM   21  H   LIG     1     -13.275 -28.572   1.235  1.00  0.00     0.083 H 
HETATM   22  C   LIG     1     -14.620 -28.188  -1.892  1.00  0.00    -0.052 C 
HETATM   23  H   LIG     1     -14.973 -27.266   0.040  1.00  0.00     0.084 H 
HETATM   24  C   LIG     1     -14.022 -29.309  -2.495  1.00  0.00    -0.051 C 
HETATM   25  H   LIG     1     -14.220 -29.539  -3.539  1.00  0.00     0.087 H 
BRANCH  22  26
HETATM   26  C   LIG     1     -15.490 -27.225  -2.695  1.00  0.00    -0.017 C 
HETATM   27  H   LIG     1     -15.311 -27.393  -3.766  1.00  0.00     0.047 H 
HETATM   28  H   LIG     1     -16.547 -27.477  -2.537  1.00  0.00     0.047 H 
BRANCH  26  29
HETATM   29  C   LIG     1     -15.288 -25.739  -2.402  1.00  0.00    -0.054 A 
HETATM   30  C   LIG     1     -16.223 -25.008  -1.639  1.00  0.00    -0.075 A 
HETATM   31  C   LIG     1     -16.029 -23.645  -1.370  1.00  0.00    -0.060 A 
HETATM   32  H   LIG     1     -17.103 -25.500  -1.230  1.00  0.00     0.084 H 
HETATM   33  C   LIG     1     -14.913 -22.991  -1.892  1.00  0.00     0.074 A 
HETATM   34  H   LIG     1     -16.750 -23.104  -0.758  1.00  0.00     0.085 H 
HETATM   35  C   LIG     1     -13.965 -23.696  -2.626  1.00  0.00    -0.060 A 
HETATM   36  C   LIG     1     -14.139 -25.066  -2.847  1.00  0.00    -0.075 A 
HETATM   37  H   LIG     1     -13.083 -23.198  -3.024  1.00  0.00     0.085 H 
HETATM   38  H   LIG     1     -13.352 -25.599  -3.367  1.00  0.00     0.084 H 
BRANCH  33  39
HETATM   39  S   LIG     1     -14.651 -21.262  -1.595  1.00  0.00     0.239 S 
HETATM   40  O   LIG     1     -13.510 -21.108  -0.727  1.00  0.00    -0.206 OA
HETATM   41  O   LIG     1     -15.932 -20.651  -1.301  1.00  0.00    -0.206 OA
BRANCH  39  42
HETATM   42  N   LIG     1     -14.183 -20.740  -3.127  1.00  0.00    -0.225 NA
HETATM   43  H   LIG     1     -14.954 -20.244  -3.574  1.00  0.00     0.136 HD
HETATM   44  H   LIG     1     -13.289 -20.244  -3.169  1.00  0.00     0.136 HD
ENDBRANCH  39  42
ENDBRANCH  33  39
ENDBRANCH  26  29
ENDBRANCH  22  26
ENDBRANCH  13  16
ENDBRANCH  10  12
BRANCH  10  45
HETATM   45  S   LIG     1     -11.402 -32.727  -5.403  1.00  0.00    -0.163 SA
HETATM   46  H   LIG     1     -12.720 -32.552  -5.225  1.00  0.00     0.102 HD
ENDBRANCH  10  45
ENDBRANCH   1  10
BRANCH   3  47
HETATM   47  C   LIG     1      -6.998 -32.998  -0.416  1.00  0.00    -0.025 C 
HETATM   48  H   LIG     1      -7.781 -32.734   0.308  1.00  0.00     0.042 H 
HETATM   49  H   LIG     1      -6.332 -32.126  -0.442  1.00  0.00     0.042 H 
BRANCH  47  50
HETATM   50  C   LIG     1      -6.236 -34.210   0.117  1.00  0.00    -0.001 C 
HETATM   51  H   LIG     1      -6.264 -35.049  -0.587  1.00  0.00     0.064 H 
HETATM   52  H   LIG     1      -6.660 -34.560   1.066  1.00  0.00     0.064 H 
BRANCH  50  53
HETATM   53  N   LIG     1      -4.845 -33.864   0.350  1.00  0.00    -0.360 N 
HETATM   54  C   LIG     1      -4.344 -33.628   1.610  1.00  0.00     0.221 C 
HETATM   55  O   LIG     1      -5.035 -33.702   2.620  1.00  0.00    -0.273 OA
HETATM   56  H   LIG     1      -4.210 -33.828  -0.437  1.00  0.00     0.162 HD
BRANCH  54  57
HETATM   57  C   LIG     1      -2.845 -33.306   1.616  1.00  0.00     0.024 C 
HETATM   58  C   LIG     1      -2.460 -32.293   0.528  1.00  0.00    -0.051 C 
HETATM   59  C   LIG     1      -2.982 -30.889   0.838  1.00  0.00    -0.040 C 
HETATM   60  H   LIG     1      -2.831 -32.599  -0.456  1.00  0.00     0.034 H 
HETATM   61  H   LIG     1      -1.366 -32.264   0.444  1.00  0.00     0.034 H 
HETATM   62  C   LIG     1      -2.543 -30.398   2.216  1.00  0.00     0.035 C 
HETATM   63  H   LIG     1      -4.076 -30.887   0.776  1.00  0.00     0.036 H 
HETATM   64  H   LIG     1      -2.611 -30.204   0.064  1.00  0.00     0.036 H 
HETATM   65  C   LIG     1      -2.839 -31.407   3.324  1.00  0.00    -0.040 C 
HETATM   66  H   LIG     1      -3.044 -29.448   2.434  1.00  0.00     0.082 H 
HETATM   67  C   LIG     1      -2.357 -32.820   2.986  1.00  0.00    -0.051 C 
HETATM   68  H   LIG     1      -3.917 -31.421   3.517  1.00  0.00     0.036 H 
HETATM   69  H   LIG     1      -2.353 -31.093   4.257  1.00  0.00     0.036 H 
HETATM   70  H   LIG     1      -2.678 -33.513   3.774  1.00  0.00     0.034 H 
HETATM   71  H   LIG     1      -1.259 -32.832   2.989  1.00  0.00     0.034 H 
HETATM   72  H   LIG     1      -2.339 -34.257   1.400  1.00  0.00     0.054 H 
BRANCH  62  73
HETATM   73  O   LIG     1      -1.141 -30.144   2.179  1.00  0.00    -0.396 OA
HETATM   74  H   LIG     1      -0.964 -29.435   2.823  1.00  0.00     0.210 HD
ENDBRANCH  62  73
ENDBRANCH  54  57
ENDBRANCH  50  53
ENDBRANCH  47  50
ENDBRANCH   3  47
TORSDOF 13
ENDMDL
MODEL 6
REMARK VINA RESULT:      -5.5      3.263      5.306
REMARK  13 active torsions:
REMARK  status: ('A' for Active; 'I' for Inactive)
REMARK    1  A    between atoms: N_1  and  S_2 
REMARK    2  A    between atoms: S_2  and  C_5 
REMARK    3  A    between atoms: C_8  and  C_9 
REMARK    4  A    between atoms: C_9  and  C_10 
REMARK    5  A    between atoms: C_14  and  N_15 
REMARK       I    between atoms: N_15  and  C_16 
REMARK    6  A    between atoms: C_16  and  C_18 
REMARK    7  A    between atoms: C_18  and  S_19 
REMARK    8  A    between atoms: C_18  and  C_20 
REMARK    9  A    between atoms: C_22  and  C_23 
REMARK   10  A    between atoms: C_23  and  C_24 
REMARK   11  A    between atoms: C_24  and  N_25 
REMARK       I    between atoms: N_25  and  C_26 
REMARK   12  A    between atoms: C_26  and  C_28 
REMARK   13  A    between atoms: C_31  and  O_32 
ROOT
HETATM    1  C   LIG     1      -9.906 -31.961  -3.717  1.00  0.00    -0.018 A 
HETATM    2  C   LIG     1      -9.394 -32.526  -2.540  1.00  0.00    -0.066 A 
HETATM    3  C   LIG     1      -8.129 -32.157  -2.060  1.00  0.00    -0.038 A 
HETATM    4  C   LIG     1      -7.410 -31.230  -2.804  1.00  0.00     0.008 A 
HETATM    5  N   LIG     1      -7.872 -30.652  -3.936  1.00  0.00    -0.272 NA
HETATM    6  C   LIG     1      -9.109 -31.002  -4.343  1.00  0.00     0.009 A 
HETATM    7  H   LIG     1      -9.983 -33.230  -1.956  1.00  0.00     0.085 H 
HETATM    8  H   LIG     1      -6.427 -30.883  -2.495  1.00  0.00     0.115 H 
HETATM    9  H   LIG     1      -9.464 -30.459  -5.219  1.00  0.00     0.115 H 
ENDROOT
BRANCH   1  10
HETATM   10  C   LIG     1     -11.264 -32.266  -4.324  1.00  0.00     0.092 C 
HETATM   11  H   LIG     1     -11.410 -33.350  -4.245  1.00  0.00     0.078 H 
BRANCH  10  12
HETATM   12  C   LIG     1     -12.415 -31.585  -3.564  1.00  0.00     0.240 C 
HETATM   13  N   LIG     1     -12.050 -30.431  -2.879  1.00  0.00    -0.326 N 
HETATM   14  H   LIG     1     -11.111 -30.432  -2.497  1.00  0.00     0.169 HD
HETATM   15  O   LIG     1     -13.542 -32.079  -3.541  1.00  0.00    -0.272 OA
BRANCH  13  16
HETATM   16  C   LIG     1     -12.995 -29.625  -2.216  1.00  0.00     0.035 C 
HETATM   17  C   LIG     1     -13.310 -29.835  -0.873  1.00  0.00    -0.057 C 
HETATM   18  C   LIG     1     -14.378 -29.147  -0.306  1.00  0.00    -0.080 C 
HETATM   19  H   LIG     1     -12.791 -30.579  -0.273  1.00  0.00     0.086 H 
HETATM   20  C   LIG     1     -15.083 -28.209  -1.063  1.00  0.00    -0.076 C 
HETATM   21  H   LIG     1     -14.671 -29.359   0.721  1.00  0.00     0.083 H 
HETATM   22  C   LIG     1     -14.673 -27.856  -2.358  1.00  0.00    -0.052 C 
HETATM   23  H   LIG     1     -15.965 -27.761  -0.617  1.00  0.00     0.084 H 
HETATM   24  C   LIG     1     -13.665 -28.637  -2.952  1.00  0.00    -0.051 C 
HETATM   25  H   LIG     1     -13.368 -28.456  -3.981  1.00  0.00     0.087 H 
BRANCH  22  26
HETATM   26  C   LIG     1     -15.319 -26.694  -3.106  1.00  0.00    -0.017 C 
HETATM   27  H   LIG     1     -15.046 -26.758  -4.169  1.00  0.00     0.047 H 
HETATM   28  H   LIG     1     -16.410 -26.811  -3.082  1.00  0.00     0.047 H 
BRANCH  26  29
HETATM   29  C   LIG     1     -14.962 -25.295  -2.603  1.00  0.00    -0.054 A 
HETATM   30  C   LIG     1     -13.805 -24.627  -3.052  1.00  0.00    -0.075 A 
HETATM   31  C   LIG     1     -13.486 -23.341  -2.589  1.00  0.00    -0.060 A 
HETATM   32  H   LIG     1     -13.148 -25.095  -3.782  1.00  0.00     0.084 H 
HETATM   33  C   LIG     1     -14.308 -22.725  -1.645  1.00  0.00     0.074 A 
HETATM   34  H   LIG     1     -12.601 -22.831  -2.967  1.00  0.00     0.085 H 
HETATM   35  C   LIG     1     -15.468 -23.354  -1.207  1.00  0.00    -0.060 A 
HETATM   36  C   LIG     1     -15.806 -24.614  -1.711  1.00  0.00    -0.075 A 
HETATM   37  H   LIG     1     -16.124 -22.875  -0.482  1.00  0.00     0.085 H 
HETATM   38  H   LIG     1     -16.748 -25.049  -1.398  1.00  0.00     0.084 H 
BRANCH  33  39
HETATM   39  S   LIG     1     -13.921 -21.112  -1.018  1.00  0.00     0.239 S 
HETATM   40  O   LIG     1     -13.046 -21.253   0.119  1.00  0.00    -0.206 OA
HETATM   41  O   LIG     1     -15.147 -20.341  -0.956  1.00  0.00    -0.206 OA
BRANCH  39  42
HETATM   42  N   LIG     1     -12.997 -20.489  -2.281  1.00  0.00    -0.225 NA
HETATM   43  H   LIG     1     -13.226 -19.505  -2.424  1.00  0.00     0.136 HD
HETATM   44  H   LIG     1     -11.993 -20.679  -2.228  1.00  0.00     0.136 HD
ENDBRANCH  39  42
ENDBRANCH  33  39
ENDBRANCH  26  29
ENDBRANCH  22  26
ENDBRANCH  13  16
ENDBRANCH  10  12
BRANCH  10  45
HETATM   45  S   LIG     1     -11.465 -31.846  -6.094  1.00  0.00    -0.163 SA
HETATM   46  H   LIG     1     -12.664 -31.261  -5.950  1.00  0.00     0.102 HD
ENDBRANCH  10  45
ENDBRANCH   1  10
BRANCH   3  47
HETATM   47  C   LIG     1      -7.624 -32.681  -0.744  1.00  0.00    -0.025 C 
HETATM   48  H   LIG     1      -7.951 -33.723  -0.619  1.00  0.00     0.042 H 
HETATM   49  H   LIG     1      -8.118 -32.131   0.069  1.00  0.00     0.042 H 
BRANCH  47  50
HETATM   50  C   LIG     1      -6.109 -32.626  -0.553  1.00  0.00    -0.001 C 
HETATM   51  H   LIG     1      -5.839 -32.345   0.471  1.00  0.00     0.064 H 
HETATM   52  H   LIG     1      -5.649 -31.896  -1.229  1.00  0.00     0.064 H 
BRANCH  50  53
HETATM   53  N   LIG     1      -5.522 -33.924  -0.832  1.00  0.00    -0.360 N 
HETATM   54  C   LIG     1      -4.750 -34.161  -1.946  1.00  0.00     0.221 C 
HETATM   55  O   LIG     1      -4.499 -33.291  -2.774  1.00  0.00    -0.273 OA
HETATM   56  H   LIG     1      -5.654 -34.676  -0.168  1.00  0.00     0.162 HD
BRANCH  54  57
HETATM   57  C   LIG     1      -4.215 -35.597  -2.021  1.00  0.00     0.024 C 
HETATM   58  C   LIG     1      -5.297 -36.640  -1.710  1.00  0.00    -0.051 C 
HETATM   59  C   LIG     1      -6.336 -36.742  -2.828  1.00  0.00    -0.040 C 
HETATM   60  H   LIG     1      -5.811 -36.420  -0.769  1.00  0.00     0.034 H 
HETATM   61  H   LIG     1      -4.816 -37.617  -1.572  1.00  0.00     0.034 H 
HETATM   62  C   LIG     1      -5.699 -37.008  -4.191  1.00  0.00     0.035 C 
HETATM   63  H   LIG     1      -6.918 -35.814  -2.868  1.00  0.00     0.036 H 
HETATM   64  H   LIG     1      -7.033 -37.552  -2.579  1.00  0.00     0.036 H 
HETATM   65  C   LIG     1      -4.564 -36.038  -4.512  1.00  0.00    -0.040 C 
HETATM   66  H   LIG     1      -6.471 -36.947  -4.966  1.00  0.00     0.082 H 
HETATM   67  C   LIG     1      -3.554 -35.905  -3.369  1.00  0.00    -0.051 C 
HETATM   68  H   LIG     1      -4.987 -35.056  -4.745  1.00  0.00     0.036 H 
HETATM   69  H   LIG     1      -4.026 -36.374  -5.408  1.00  0.00     0.036 H 
HETATM   70  H   LIG     1      -2.818 -35.131  -3.621  1.00  0.00     0.034 H 
HETATM   71  H   LIG     1      -2.995 -36.846  -3.276  1.00  0.00     0.034 H 
HETATM   72  H   LIG     1      -3.438 -35.661  -1.246  1.00  0.00     0.054 H 
BRANCH  62  73
HETATM   73  O   LIG     1      -5.189 -38.339  -4.198  1.00  0.00    -0.396 OA
HETATM   74  H   LIG     1      -5.914 -38.919  -4.493  1.00  0.00     0.210 HD
ENDBRANCH  62  73
ENDBRANCH  54  57
ENDBRANCH  50  53
ENDBRANCH  47  50
ENDBRANCH   3  47
TORSDOF 13
ENDMDL
MODEL 7
REMARK VINA RESULT:      -5.4      4.110      8.063
REMARK  13 active torsions:
REMARK  status: ('A' for Active; 'I' for Inactive)
REMARK    1  A    between atoms: N_1  and  S_2 
REMARK    2  A    between atoms: S_2  and  C_5 
REMARK    3  A    between atoms: C_8  and  C_9 
REMARK    4  A    between atoms: C_9  and  C_10 
REMARK    5  A    between atoms: C_14  and  N_15 
REMARK       I    between atoms: N_15  and  C_16 
REMARK    6  A    between atoms: C_16  and  C_18 
REMARK    7  A    between atoms: C_18  and  S_19 
REMARK    8  A    between atoms: C_18  and  C_20 
REMARK    9  A    between atoms: C_22  and  C_23 
REMARK   10  A    between atoms: C_23  and  C_24 
REMARK   11  A    between atoms: C_24  and  N_25 
REMARK       I    between atoms: N_25  and  C_26 
REMARK   12  A    between atoms: C_26  and  C_28 
REMARK   13  A    between atoms: C_31  and  O_32 
ROOT
HETATM    1  C   LIG     1     -10.958 -31.744  -2.138  1.00  0.00    -0.018 A 
HETATM    2  C   LIG     1     -11.959 -30.864  -2.573  1.00  0.00    -0.066 A 
HETATM    3  C   LIG     1     -13.104 -30.640  -1.794  1.00  0.00    -0.038 A 
HETATM    4  C   LIG     1     -13.206 -31.334  -0.595  1.00  0.00     0.008 A 
HETATM    5  N   LIG     1     -12.258 -32.181  -0.133  1.00  0.00    -0.272 NA
HETATM    6  C   LIG     1     -11.153 -32.339  -0.890  1.00  0.00     0.009 A 
HETATM    7  H   LIG     1     -11.849 -30.308  -3.502  1.00  0.00     0.085 H 
HETATM    8  H   LIG     1     -14.056 -31.208   0.072  1.00  0.00     0.115 H 
HETATM    9  H   LIG     1     -10.390 -32.976  -0.444  1.00  0.00     0.115 H 
ENDROOT
BRANCH   1  10
HETATM   10  C   LIG     1      -9.671 -32.054  -2.881  1.00  0.00     0.092 C 
HETATM   11  H   LIG     1      -9.770 -33.071  -3.277  1.00  0.00     0.078 H 
BRANCH  10  12
HETATM   12  C   LIG     1      -9.438 -31.111  -4.074  1.00  0.00     0.240 C 
HETATM   13  N   LIG     1      -8.780 -29.928  -3.753  1.00  0.00    -0.326 N 
HETATM   14  H   LIG     1      -8.983 -29.554  -2.833  1.00  0.00     0.169 HD
HETATM   15  O   LIG     1      -9.861 -31.388  -5.196  1.00  0.00    -0.272 OA
BRANCH  13  16
HETATM   16  C   LIG     1      -8.393 -28.998  -4.737  1.00  0.00     0.035 C 
HETATM   17  C   LIG     1      -7.387 -29.294  -5.658  1.00  0.00    -0.057 C 
HETATM   18  C   LIG     1      -6.904 -28.289  -6.489  1.00  0.00    -0.080 C 
HETATM   19  H   LIG     1      -6.916 -30.273  -5.694  1.00  0.00     0.086 H 
HETATM   20  C   LIG     1      -7.469 -27.013  -6.440  1.00  0.00    -0.076 C 
HETATM   21  H   LIG     1      -6.072 -28.498  -7.159  1.00  0.00     0.083 H 
HETATM   22  C   LIG     1      -8.595 -26.740  -5.647  1.00  0.00    -0.052 C 
HETATM   23  H   LIG     1      -7.006 -26.232  -7.035  1.00  0.00     0.084 H 
HETATM   24  C   LIG     1      -8.999 -27.733  -4.737  1.00  0.00    -0.051 C 
HETATM   25  H   LIG     1      -9.815 -27.541  -4.044  1.00  0.00     0.087 H 
BRANCH  22  26
HETATM   26  C   LIG     1      -9.331 -25.408  -5.745  1.00  0.00    -0.017 C 
HETATM   27  H   LIG     1      -9.756 -25.162  -4.762  1.00  0.00     0.047 H 
HETATM   28  H   LIG     1      -8.606 -24.610  -5.953  1.00  0.00     0.047 H 
BRANCH  26  29
HETATM   29  C   LIG     1     -10.451 -25.338  -6.782  1.00  0.00    -0.054 A 
HETATM   30  C   LIG     1     -11.806 -25.275  -6.396  1.00  0.00    -0.075 A 
HETATM   31  C   LIG     1     -12.829 -25.206  -7.354  1.00  0.00    -0.060 A 
HETATM   32  H   LIG     1     -12.077 -25.259  -5.342  1.00  0.00     0.084 H 
HETATM   33  C   LIG     1     -12.506 -25.234  -8.710  1.00  0.00     0.074 A 
HETATM   34  H   LIG     1     -13.869 -25.132  -7.035  1.00  0.00     0.085 H 
HETATM   35  C   LIG     1     -11.177 -25.272  -9.115  1.00  0.00    -0.060 A 
HETATM   36  C   LIG     1     -10.160 -25.288  -8.155  1.00  0.00    -0.075 A 
HETATM   37  H   LIG     1     -10.914 -25.278 -10.172  1.00  0.00     0.085 H 
HETATM   38  H   LIG     1      -9.135 -25.253  -8.503  1.00  0.00     0.084 H 
BRANCH  33  39
HETATM   39  S   LIG     1     -13.775 -25.177  -9.948  1.00  0.00     0.239 S 
HETATM   40  O   LIG     1     -13.316 -24.367 -11.048  1.00  0.00    -0.206 OA
HETATM   41  O   LIG     1     -15.044 -24.935  -9.290  1.00  0.00    -0.206 OA
BRANCH  39  42
HETATM   42  N   LIG     1     -13.780 -26.776 -10.478  1.00  0.00    -0.225 NA
HETATM   43  H   LIG     1     -14.589 -27.266 -10.094  1.00  0.00     0.136 HD
HETATM   44  H   LIG     1     -13.654 -26.906 -11.485  1.00  0.00     0.136 HD
ENDBRANCH  39  42
ENDBRANCH  33  39
ENDBRANCH  26  29
ENDBRANCH  22  26
ENDBRANCH  13  16
ENDBRANCH  10  12
BRANCH  10  45
HETATM   45  S   LIG     1      -8.140 -32.039  -1.877  1.00  0.00    -0.163 SA
HETATM   46  H   LIG     1      -7.343 -32.492  -2.856  1.00  0.00     0.102 HD
ENDBRANCH  10  45
ENDBRANCH   1  10
BRANCH   3  47
HETATM   47  C   LIG     1     -14.126 -29.617  -2.208  1.00  0.00    -0.025 C 
HETATM   48  H   LIG     1     -14.624 -29.954  -3.128  1.00  0.00     0.042 H 
HETATM   49  H   LIG     1     -13.606 -28.692  -2.491  1.00  0.00     0.042 H 
BRANCH  47  50
HETATM   50  C   LIG     1     -15.200 -29.304  -1.167  1.00  0.00    -0.001 C 
HETATM   51  H   LIG     1     -15.490 -30.197  -0.602  1.00  0.00     0.064 H 
HETATM   52  H   LIG     1     -16.104 -28.901  -1.638  1.00  0.00     0.064 H 
BRANCH  50  53
HETATM   53  N   LIG     1     -14.710 -28.315  -0.224  1.00  0.00    -0.360 N 
HETATM   54  C   LIG     1     -15.045 -26.983  -0.310  1.00  0.00     0.221 C 
HETATM   55  O   LIG     1     -15.787 -26.543  -1.182  1.00  0.00    -0.273 OA
HETATM   56  H   LIG     1     -14.127 -28.617   0.546  1.00  0.00     0.162 HD
BRANCH  54  57
HETATM   57  C   LIG     1     -14.432 -26.129   0.807  1.00  0.00     0.024 C 
HETATM   58  C   LIG     1     -13.150 -26.750   1.381  1.00  0.00    -0.051 C 
HETATM   59  C   LIG     1     -11.985 -26.678   0.393  1.00  0.00    -0.040 C 
HETATM   60  H   LIG     1     -13.304 -27.794   1.672  1.00  0.00     0.034 H 
HETATM   61  H   LIG     1     -12.881 -26.215   2.300  1.00  0.00     0.034 H 
HETATM   62  C   LIG     1     -11.727 -25.255  -0.098  1.00  0.00     0.035 C 
HETATM   63  H   LIG     1     -12.193 -27.331  -0.462  1.00  0.00     0.036 H 
HETATM   64  H   LIG     1     -11.087 -27.068   0.890  1.00  0.00     0.036 H 
HETATM   65  C   LIG     1     -12.991 -24.568  -0.611  1.00  0.00    -0.040 C 
HETATM   66  H   LIG     1     -10.970 -25.281  -0.890  1.00  0.00     0.082 H 
HETATM   67  C   LIG     1     -14.168 -24.686   0.361  1.00  0.00    -0.051 C 
HETATM   68  H   LIG     1     -13.267 -25.002  -1.578  1.00  0.00     0.036 H 
HETATM   69  H   LIG     1     -12.795 -23.503  -0.785  1.00  0.00     0.036 H 
HETATM   70  H   LIG     1     -15.066 -24.257  -0.100  1.00  0.00     0.034 H 
HETATM   71  H   LIG     1     -13.956 -24.080   1.253  1.00  0.00     0.034 H 
HETATM   72  H   LIG     1     -15.190 -26.098   1.603  1.00  0.00     0.054 H 
BRANCH  62  73
HETATM   73  O   LIG     1     -11.190 -24.495   0.982  1.00  0.00    -0.396 OA
HETATM   74  H   LIG     1     -10.617 -23.812   0.591  1.00  0.00     0.210 HD
ENDBRANCH  62  73
ENDBRANCH  54  57
ENDBRANCH  50  53
ENDBRANCH  47  50
ENDBRANCH   3  47
TORSDOF 13
ENDMDL
MODEL 8
REMARK VINA RESULT:      -5.4      2.978      7.170
REMARK  13 active torsions:
REMARK  status: ('A' for Active; 'I' for Inactive)
REMARK    1  A    between atoms: N_1  and  S_2 
REMARK    2  A    between atoms: S_2  and  C_5 
REMARK    3  A    between atoms: C_8  and  C_9 
REMARK    4  A    between atoms: C_9  and  C_10 
REMARK    5  A    between atoms: C_14  and  N_15 
REMARK       I    between atoms: N_15  and  C_16 
REMARK    6  A    between atoms: C_16  and  C_18 
REMARK    7  A    between atoms: C_18  and  S_19 
REMARK    8  A    between atoms: C_18  and  C_20 
REMARK    9  A    between atoms: C_22  and  C_23 
REMARK   10  A    between atoms: C_23  and  C_24 
REMARK   11  A    between atoms: C_24  and  N_25 
REMARK       I    between atoms: N_25  and  C_26 
REMARK   12  A    between atoms: C_26  and  C_28 
REMARK   13  A    between atoms: C_31  and  O_32 
ROOT
HETATM    1  C   LIG     1     -10.775 -31.884  -1.711  1.00  0.00    -0.018 A 
HETATM    2  C   LIG     1     -11.730 -30.990  -2.219  1.00  0.00    -0.066 A 
HETATM    3  C   LIG     1     -12.866 -30.653  -1.469  1.00  0.00    -0.038 A 
HETATM    4  C   LIG     1     -13.009 -31.251  -0.224  1.00  0.00     0.008 A 
HETATM    5  N   LIG     1     -12.107 -32.106   0.308  1.00  0.00    -0.272 NA
HETATM    6  C   LIG     1     -11.007 -32.374  -0.425  1.00  0.00     0.009 A 
HETATM    7  H   LIG     1     -11.586 -30.511  -3.185  1.00  0.00     0.085 H 
HETATM    8  H   LIG     1     -13.856 -31.035   0.424  1.00  0.00     0.115 H 
HETATM    9  H   LIG     1     -10.279 -33.013   0.075  1.00  0.00     0.115 H 
ENDROOT
BRANCH   1  10
HETATM   10  C   LIG     1      -9.501 -32.310  -2.416  1.00  0.00     0.092 C 
HETATM   11  H   LIG     1      -9.647 -33.349  -2.736  1.00  0.00     0.078 H 
BRANCH  10  12
HETATM   12  C   LIG     1      -9.216 -31.472  -3.675  1.00  0.00     0.240 C 
HETATM   13  N   LIG     1      -8.741 -30.190  -3.417  1.00  0.00    -0.326 N 
HETATM   14  H   LIG     1      -9.106 -29.753  -2.579  1.00  0.00     0.169 HD
HETATM   15  O   LIG     1      -9.452 -31.913  -4.799  1.00  0.00    -0.272 OA
BRANCH  13  16
HETATM   16  C   LIG     1      -8.331 -29.324  -4.449  1.00  0.00     0.035 C 
HETATM   17  C   LIG     1      -7.002 -29.281  -4.872  1.00  0.00    -0.057 C 
HETATM   18  C   LIG     1      -6.598 -28.285  -5.757  1.00  0.00    -0.080 C 
HETATM   19  H   LIG     1      -6.252 -29.958  -4.471  1.00  0.00     0.086 H 
HETATM   20  C   LIG     1      -7.535 -27.381  -6.262  1.00  0.00    -0.076 C 
HETATM   21  H   LIG     1      -5.549 -28.205  -6.035  1.00  0.00     0.083 H 
HETATM   22  C   LIG     1      -8.905 -27.515  -5.986  1.00  0.00    -0.052 C 
HETATM   23  H   LIG     1      -7.168 -26.565  -6.875  1.00  0.00     0.084 H 
HETATM   24  C   LIG     1      -9.278 -28.454  -5.008  1.00  0.00    -0.051 C 
HETATM   25  H   LIG     1     -10.317 -28.540  -4.700  1.00  0.00     0.087 H 
BRANCH  22  26
HETATM   26  C   LIG     1      -9.945 -26.653  -6.695  1.00  0.00    -0.017 C 
HETATM   27  H   LIG     1      -9.459 -26.115  -7.521  1.00  0.00     0.047 H 
HETATM   28  H   LIG     1     -10.687 -27.305  -7.174  1.00  0.00     0.047 H 
BRANCH  26  29
HETATM   29  C   LIG     1     -10.675 -25.633  -5.822  1.00  0.00    -0.054 A 
HETATM   30  C   LIG     1     -12.055 -25.750  -5.556  1.00  0.00    -0.075 A 
HETATM   31  C   LIG     1     -12.718 -24.811  -4.750  1.00  0.00    -0.060 A 
HETATM   32  H   LIG     1     -12.624 -26.585  -5.959  1.00  0.00     0.084 H 
HETATM   33  C   LIG     1     -12.011 -23.727  -4.230  1.00  0.00     0.074 A 
HETATM   34  H   LIG     1     -13.780 -24.933  -4.535  1.00  0.00     0.085 H 
HETATM   35  C   LIG     1     -10.645 -23.605  -4.458  1.00  0.00    -0.060 A 
HETATM   36  C   LIG     1      -9.981 -24.571  -5.220  1.00  0.00    -0.075 A 
HETATM   37  H   LIG     1     -10.082 -22.770  -4.044  1.00  0.00     0.085 H 
HETATM   38  H   LIG     1      -8.906 -24.481  -5.326  1.00  0.00     0.084 H 
BRANCH  33  39
HETATM   39  S   LIG     1     -12.823 -22.508  -3.230  1.00  0.00     0.239 S 
HETATM   40  O   LIG     1     -11.889 -22.012  -2.251  1.00  0.00    -0.206 OA
HETATM   41  O   LIG     1     -14.129 -23.018  -2.860  1.00  0.00    -0.206 OA
BRANCH  39  42
HETATM   42  N   LIG     1     -13.063 -21.277  -4.355  1.00  0.00    -0.225 NA
HETATM   43  H   LIG     1     -14.041 -21.261  -4.647  1.00  0.00     0.136 HD
HETATM   44  H   LIG     1     -12.692 -20.361  -4.091  1.00  0.00     0.136 HD
ENDBRANCH  39  42
ENDBRANCH  33  39
ENDBRANCH  26  29
ENDBRANCH  22  26
ENDBRANCH  13  16
ENDBRANCH  10  12
BRANCH  10  45
HETATM   45  S   LIG     1      -7.977 -32.293  -1.403  1.00  0.00    -0.163 SA
HETATM   46  H   LIG     1      -7.197 -32.857  -2.337  1.00  0.00     0.102 HD
ENDBRANCH  10  45
ENDBRANCH   1  10
BRANCH   3  47
HETATM   47  C   LIG     1     -13.834 -29.615  -1.967  1.00  0.00    -0.025 C 
HETATM   48  H   LIG     1     -14.257 -29.946  -2.926  1.00  0.00     0.042 H 
HETATM   49  H   LIG     1     -13.278 -28.699  -2.205  1.00  0.00     0.042 H 
BRANCH  47  50
HETATM   50  C   LIG     1     -14.987 -29.285  -1.021  1.00  0.00    -0.001 C 
HETATM   51  H   LIG     1     -15.304 -30.162  -0.446  1.00  0.00     0.064 H 
HETATM   52  H   LIG     1     -15.860 -28.915  -1.571  1.00  0.00     0.064 H 
BRANCH  50  53
HETATM   53  N   LIG     1     -14.583 -28.254  -0.081  1.00  0.00    -0.360 N 
HETATM   54  C   LIG     1     -14.622 -26.914  -0.393  1.00  0.00     0.221 C 
HETATM   55  O   LIG     1     -15.008 -26.500  -1.481  1.00  0.00    -0.273 OA
HETATM   56  H   LIG     1     -14.294 -28.525   0.850  1.00  0.00     0.162 HD
BRANCH  54  57
HETATM   57  C   LIG     1     -14.175 -26.008   0.761  1.00  0.00     0.024 C 
HETATM   58  C   LIG     1     -13.241 -26.731   1.743  1.00  0.00    -0.051 C 
HETATM   59  C   LIG     1     -11.863 -27.000   1.135  1.00  0.00    -0.040 C 
HETATM   60  H   LIG     1     -13.670 -27.680   2.081  1.00  0.00     0.034 H 
HETATM   61  H   LIG     1     -13.127 -26.112   2.642  1.00  0.00     0.034 H 
HETATM   62  C   LIG     1     -11.208 -25.729   0.598  1.00  0.00     0.035 C 
HETATM   63  H   LIG     1     -11.960 -27.735   0.328  1.00  0.00     0.036 H 
HETATM   64  H   LIG     1     -11.226 -27.448   1.909  1.00  0.00     0.036 H 
HETATM   65  C   LIG     1     -12.128 -24.935  -0.328  1.00  0.00    -0.040 C 
HETATM   66  H   LIG     1     -10.287 -25.996   0.067  1.00  0.00     0.082 H 
HETATM   67  C   LIG     1     -13.522 -24.713   0.267  1.00  0.00    -0.051 C 
HETATM   68  H   LIG     1     -12.216 -25.462  -1.284  1.00  0.00     0.036 H 
HETATM   69  H   LIG     1     -11.687 -23.954  -0.544  1.00  0.00     0.036 H 
HETATM   70  H   LIG     1     -14.161 -24.221  -0.477  1.00  0.00     0.034 H 
HETATM   71  H   LIG     1     -13.440 -24.019   1.115  1.00  0.00     0.034 H 
HETATM   72  H   LIG     1     -15.096 -25.736   1.294  1.00  0.00     0.054 H 
BRANCH  62  73
HETATM   73  O   LIG     1     -10.841 -24.909   1.704  1.00  0.00    -0.396 OA
HETATM   74  H   LIG     1     -10.061 -24.394   1.430  1.00  0.00     0.210 HD
ENDBRANCH  62  73
ENDBRANCH  54  57
ENDBRANCH  50  53
ENDBRANCH  47  50
ENDBRANCH   3  47
TORSDOF 13
ENDMDL
MODEL 9
REMARK VINA RESULT:      -4.9      4.099     10.913
REMARK  13 active torsions:
REMARK  status: ('A' for Active; 'I' for Inactive)
REMARK    1  A    between atoms: N_1  and  S_2 
REMARK    2  A    between atoms: S_2  and  C_5 
REMARK    3  A    between atoms: C_8  and  C_9 
REMARK    4  A    between atoms: C_9  and  C_10 
REMARK    5  A    between atoms: C_14  and  N_15 
REMARK       I    between atoms: N_15  and  C_16 
REMARK    6  A    between atoms: C_16  and  C_18 
REMARK    7  A    between atoms: C_18  and  S_19 
REMARK    8  A    between atoms: C_18  and  C_20 
REMARK    9  A    between atoms: C_22  and  C_23 
REMARK   10  A    between atoms: C_23  and  C_24 
REMARK   11  A    between atoms: C_24  and  N_25 
REMARK       I    between atoms: N_25  and  C_26 
REMARK   12  A    between atoms: C_26  and  C_28 
REMARK   13  A    between atoms: C_31  and  O_32 
ROOT
HETATM    1  C   LIG     1     -10.920 -32.692  -1.911  1.00  0.00    -0.018 A 
HETATM    2  C   LIG     1     -11.900 -31.866  -2.482  1.00  0.00    -0.066 A 
HETATM    3  C   LIG     1     -12.840 -31.207  -1.677  1.00  0.00    -0.038 A 
HETATM    4  C   LIG     1     -12.768 -31.422  -0.306  1.00  0.00     0.008 A 
HETATM    5  N   LIG     1     -11.832 -32.198   0.285  1.00  0.00    -0.272 NA
HETATM    6  C   LIG     1     -10.920 -32.782  -0.519  1.00  0.00     0.009 A 
HETATM    7  H   LIG     1     -11.923 -31.689  -3.556  1.00  0.00     0.085 H 
HETATM    8  H   LIG     1     -13.453 -30.940   0.388  1.00  0.00     0.115 H 
HETATM    9  H   LIG     1     -10.148 -33.340   0.010  1.00  0.00     0.115 H 
ENDROOT
BRANCH   1  10
HETATM   10  C   LIG     1      -9.841 -33.439  -2.673  1.00  0.00     0.092 C 
HETATM   11  H   LIG     1     -10.108 -34.503  -2.639  1.00  0.00     0.078 H 
BRANCH  10  12
HETATM   12  C   LIG     1      -9.772 -33.026  -4.154  1.00  0.00     0.240 C 
HETATM   13  N   LIG     1     -10.333 -33.944  -5.034  1.00  0.00    -0.326 N 
HETATM   14  H   LIG     1     -10.238 -34.917  -4.766  1.00  0.00     0.169 HD
HETATM   15  O   LIG     1      -9.209 -31.988  -4.498  1.00  0.00    -0.272 OA
BRANCH  13  16
HETATM   16  C   LIG     1     -10.449 -33.683  -6.413  1.00  0.00     0.035 C 
HETATM   17  C   LIG     1     -11.685 -33.391  -6.993  1.00  0.00    -0.057 C 
HETATM   18  C   LIG     1     -11.790 -33.324  -8.379  1.00  0.00    -0.080 C 
HETATM   19  H   LIG     1     -12.587 -33.287  -6.395  1.00  0.00     0.086 H 
HETATM   20  C   LIG     1     -10.653 -33.486  -9.173  1.00  0.00    -0.076 C 
HETATM   21  H   LIG     1     -12.764 -33.166  -8.838  1.00  0.00     0.083 H 
HETATM   22  C   LIG     1      -9.374 -33.607  -8.605  1.00  0.00    -0.052 C 
HETATM   23  H   LIG     1     -10.789 -33.520 -10.249  1.00  0.00     0.084 H 
HETATM   24  C   LIG     1      -9.300 -33.781  -7.212  1.00  0.00    -0.051 C 
HETATM   25  H   LIG     1      -8.341 -33.959  -6.733  1.00  0.00     0.087 H 
BRANCH  22  26
HETATM   26  C   LIG     1      -8.117 -33.582  -9.469  1.00  0.00    -0.017 C 
HETATM   27  H   LIG     1      -8.370 -33.169 -10.455  1.00  0.00     0.047 H 
HETATM   28  H   LIG     1      -7.396 -32.875  -9.037  1.00  0.00     0.047 H 
BRANCH  26  29
HETATM   29  C   LIG     1      -7.423 -34.927  -9.677  1.00  0.00    -0.054 A 
HETATM   30  C   LIG     1      -7.440 -35.577 -10.928  1.00  0.00    -0.075 A 
HETATM   31  C   LIG     1      -6.796 -36.810 -11.113  1.00  0.00    -0.060 A 
HETATM   32  H   LIG     1      -7.940 -35.118 -11.779  1.00  0.00     0.084 H 
HETATM   33  C   LIG     1      -6.157 -37.422 -10.035  1.00  0.00     0.074 A 
HETATM   34  H   LIG     1      -6.799 -37.283 -12.095  1.00  0.00     0.085 H 
HETATM   35  C   LIG     1      -6.105 -36.789  -8.798  1.00  0.00    -0.060 A 
HETATM   36  C   LIG     1      -6.705 -35.537  -8.634  1.00  0.00    -0.075 A 
HETATM   37  H   LIG     1      -5.595 -37.252  -7.954  1.00  0.00     0.085 H 
HETATM   38  H   LIG     1      -6.592 -35.042  -7.677  1.00  0.00     0.084 H 
BRANCH  33  39
HETATM   39  S   LIG     1      -5.356 -38.993 -10.226  1.00  0.00     0.239 S 
HETATM   40  O   LIG     1      -5.311 -39.650  -8.943  1.00  0.00    -0.206 OA
HETATM   41  O   LIG     1      -4.171 -38.805 -11.038  1.00  0.00    -0.206 OA
BRANCH  39  42
HETATM   42  N   LIG     1      -6.486 -39.818 -11.165  1.00  0.00    -0.225 NA
HETATM   43  H   LIG     1      -7.374 -39.316 -11.158  1.00  0.00     0.136 HD
HETATM   44  H   LIG     1      -6.168 -40.089 -12.098  1.00  0.00     0.136 HD
ENDBRANCH  39  42
ENDBRANCH  33  39
ENDBRANCH  26  29
ENDBRANCH  22  26
ENDBRANCH  13  16
ENDBRANCH  10  12
BRANCH  10  45
HETATM   45  S   LIG     1      -8.145 -33.311  -1.999  1.00  0.00    -0.163 SA
HETATM   46  H   LIG     1      -8.011 -34.621  -1.742  1.00  0.00     0.102 HD
ENDBRANCH  10  45
ENDBRANCH   1  10
BRANCH   3  47
HETATM   47  C   LIG     1     -13.822 -30.240  -2.278  1.00  0.00    -0.025 C 
HETATM   48  H   LIG     1     -14.485 -30.779  -2.969  1.00  0.00     0.042 H 
HETATM   49  H   LIG     1     -13.275 -29.528  -2.910  1.00  0.00     0.042 H 
BRANCH  47  50
HETATM   50  C   LIG     1     -14.688 -29.477  -1.278  1.00  0.00    -0.001 C 
HETATM   51  H   LIG     1     -14.804 -30.029  -0.338  1.00  0.00     0.064 H 
HETATM   52  H   LIG     1     -15.691 -29.291  -1.680  1.00  0.00     0.064 H 
BRANCH  50  53
HETATM   53  N   LIG     1     -14.086 -28.191  -0.972  1.00  0.00    -0.360 N 
HETATM   54  C   LIG     1     -14.834 -27.084  -0.644  1.00  0.00     0.221 C 
HETATM   55  O   LIG     1     -16.058 -27.110  -0.579  1.00  0.00    -0.273 OA
HETATM   56  H   LIG     1     -13.077 -28.111  -0.966  1.00  0.00     0.162 HD
BRANCH  54  57
HETATM   57  C   LIG     1     -13.983 -25.845  -0.337  1.00  0.00     0.024 C 
HETATM   58  C   LIG     1     -13.115 -25.422  -1.530  1.00  0.00    -0.051 C 
HETATM   59  C   LIG     1     -13.949 -24.831  -2.668  1.00  0.00    -0.040 C 
HETATM   60  H   LIG     1     -12.529 -26.261  -1.920  1.00  0.00     0.034 H 
HETATM   61  H   LIG     1     -12.386 -24.676  -1.189  1.00  0.00     0.034 H 
HETATM   62  C   LIG     1     -14.832 -23.675  -2.201  1.00  0.00     0.035 C 
HETATM   63  H   LIG     1     -14.574 -25.618  -3.107  1.00  0.00     0.036 H 
HETATM   64  H   LIG     1     -13.266 -24.483  -3.453  1.00  0.00     0.036 H 
HETATM   65  C   LIG     1     -15.662 -24.026  -0.968  1.00  0.00    -0.040 C 
HETATM   66  H   LIG     1     -15.494 -23.375  -3.021  1.00  0.00     0.082 H 
HETATM   67  C   LIG     1     -14.828 -24.662   0.149  1.00  0.00    -0.051 C 
HETATM   68  H   LIG     1     -16.467 -24.708  -1.260  1.00  0.00     0.036 H 
HETATM   69  H   LIG     1     -16.139 -23.123  -0.567  1.00  0.00     0.036 H 
HETATM   70  H   LIG     1     -15.491 -24.974   0.966  1.00  0.00     0.034 H 
HETATM   71  H   LIG     1     -14.155 -23.902   0.568  1.00  0.00     0.034 H 
HETATM   72  H   LIG     1     -13.320 -26.142   0.488  1.00  0.00     0.054 H 
BRANCH  62  73
HETATM   73  O   LIG     1     -13.995 -22.563  -1.897  1.00  0.00    -0.396 OA
HETATM   74  H   LIG     1     -13.847 -22.082  -2.732  1.00  0.00     0.210 HD
ENDBRANCH  62  73
ENDBRANCH  54  57
ENDBRANCH  50  53
ENDBRANCH  47  50
ENDBRANCH   3  47
TORSDOF 13
ENDMDL
MODEL 10
REMARK VINA RESULT:      -4.8      3.116      7.339
REMARK  13 active torsions:
REMARK  status: ('A' for Active; 'I' for Inactive)
REMARK    1  A    between atoms: N_1  and  S_2 
REMARK    2  A    between atoms: S_2  and  C_5 
REMARK    3  A    between atoms: C_8  and  C_9 
REMARK    4  A    between atoms: C_9  and  C_10 
REMARK    5  A    between atoms: C_14  and  N_15 
REMARK       I    between atoms: N_15  and  C_16 
REMARK    6  A    between atoms: C_16  and  C_18 
REMARK    7  A    between atoms: C_18  and  S_19 
REMARK    8  A    between atoms: C_18  and  C_20 
REMARK    9  A    between atoms: C_22  and  C_23 
REMARK   10  A    between atoms: C_23  and  C_24 
REMARK   11  A    between atoms: C_24  and  N_25 
REMARK       I    between atoms: N_25  and  C_26 
REMARK   12  A    between atoms: C_26  and  C_28 
REMARK   13  A    between atoms: C_31  and  O_32 
ROOT
HETATM    1  C   LIG     1     -10.833 -32.598  -1.410  1.00  0.00    -0.018 A 
HETATM    2  C   LIG     1     -11.768 -31.797  -2.082  1.00  0.00    -0.066 A 
HETATM    3  C   LIG     1     -12.836 -31.208  -1.390  1.00  0.00    -0.038 A 
HETATM    4  C   LIG     1     -12.935 -31.467  -0.029  1.00  0.00     0.008 A 
HETATM    5  N   LIG     1     -12.049 -32.223   0.659  1.00  0.00    -0.272 NA
HETATM    6  C   LIG     1     -11.012 -32.737  -0.033  1.00  0.00     0.009 A 
HETATM    7  H   LIG     1     -11.658 -31.583  -3.143  1.00  0.00     0.085 H 
HETATM    8  H   LIG     1     -13.727 -31.040   0.582  1.00  0.00     0.115 H 
HETATM    9  H   LIG     1     -10.290 -33.280   0.577  1.00  0.00     0.115 H 
ENDROOT
BRANCH   1  10
HETATM   10  C   LIG     1      -9.629 -33.271  -2.044  1.00  0.00     0.092 C 
HETATM   11  H   LIG     1      -9.834 -34.349  -2.047  1.00  0.00     0.078 H 
BRANCH  10  12
HETATM   12  C   LIG     1      -9.410 -32.835  -3.503  1.00  0.00     0.240 C 
HETATM   13  N   LIG     1      -8.636 -31.689  -3.651  1.00  0.00    -0.326 N 
HETATM   14  H   LIG     1      -8.739 -30.998  -2.917  1.00  0.00     0.169 HD
HETATM   15  O   LIG     1      -9.938 -33.442  -4.434  1.00  0.00    -0.272 OA
BRANCH  13  16
HETATM   16  C   LIG     1      -8.249 -31.207  -4.916  1.00  0.00     0.035 C 
HETATM   17  C   LIG     1      -7.082 -31.655  -5.535  1.00  0.00    -0.057 C 
HETATM   18  C   LIG     1      -6.635 -31.022  -6.691  1.00  0.00    -0.080 C 
HETATM   19  H   LIG     1      -6.468 -32.439  -5.099  1.00  0.00     0.086 H 
HETATM   20  C   LIG     1      -7.388 -29.990  -7.256  1.00  0.00    -0.076 C 
HETATM   21  H   LIG     1      -5.690 -31.322  -7.139  1.00  0.00     0.083 H 
HETATM   22  C   LIG     1      -8.650 -29.642  -6.748  1.00  0.00    -0.052 C 
HETATM   23  H   LIG     1      -6.964 -29.459  -8.101  1.00  0.00     0.084 H 
HETATM   24  C   LIG     1      -9.033 -30.214  -5.521  1.00  0.00    -0.051 C 
HETATM   25  H   LIG     1      -9.964 -29.916  -5.046  1.00  0.00     0.087 H 
BRANCH  22  26
HETATM   26  C   LIG     1      -9.556 -28.657  -7.480  1.00  0.00    -0.017 C 
HETATM   27  H   LIG     1      -9.164 -28.499  -8.495  1.00  0.00     0.047 H 
HETATM   28  H   LIG     1     -10.545 -29.112  -7.621  1.00  0.00     0.047 H 
BRANCH  26  29
HETATM   29  C   LIG     1      -9.733 -27.291  -6.817  1.00  0.00    -0.054 A 
HETATM   30  C   LIG     1      -8.947 -26.184  -7.197  1.00  0.00    -0.075 A 
HETATM   31  C   LIG     1      -9.118 -24.932  -6.586  1.00  0.00    -0.060 A 
HETATM   32  H   LIG     1      -8.205 -26.281  -7.987  1.00  0.00     0.084 H 
HETATM   33  C   LIG     1     -10.057 -24.785  -5.565  1.00  0.00     0.074 A 
HETATM   34  H   LIG     1      -8.519 -24.082  -6.912  1.00  0.00     0.085 H 
HETATM   35  C   LIG     1     -10.861 -25.857  -5.191  1.00  0.00    -0.060 A 
HETATM   36  C   LIG     1     -10.720 -27.088  -5.838  1.00  0.00    -0.075 A 
HETATM   37  H   LIG     1     -11.607 -25.748  -4.405  1.00  0.00     0.085 H 
HETATM   38  H   LIG     1     -11.403 -27.883  -5.568  1.00  0.00     0.084 H 
BRANCH  33  39
HETATM   39  S   LIG     1     -10.281 -23.224  -4.753  1.00  0.00     0.239 S 
HETATM   40  O   LIG     1     -11.635 -22.779  -4.967  1.00  0.00    -0.206 OA
HETATM   41  O   LIG     1      -9.137 -22.386  -5.054  1.00  0.00    -0.206 OA
BRANCH  39  42
HETATM   42  N   LIG     1     -10.159 -23.682  -3.137  1.00  0.00    -0.225 NA
HETATM   43  H   LIG     1     -10.238 -24.696  -3.057  1.00  0.00     0.136 HD
HETATM   44  H   LIG     1      -9.367 -23.284  -2.625  1.00  0.00     0.136 HD
ENDBRANCH  39  42
ENDBRANCH  33  39
ENDBRANCH  26  29
ENDBRANCH  22  26
ENDBRANCH  13  16
ENDBRANCH  10  12
BRANCH  10  45
HETATM   45  S   LIG     1      -8.035 -33.052  -1.172  1.00  0.00    -0.163 SA
HETATM   46  H   LIG     1      -8.568 -33.005   0.058  1.00  0.00     0.102 HD
ENDBRANCH  10  45
ENDBRANCH   1  10
BRANCH   3  47
HETATM   47  C   LIG     1     -13.776 -30.264  -2.088  1.00  0.00    -0.025 C 
HETATM   48  H   LIG     1     -14.397 -30.829  -2.797  1.00  0.00     0.042 H 
HETATM   49  H   LIG     1     -13.188 -29.578  -2.713  1.00  0.00     0.042 H 
BRANCH  47  50
HETATM   50  C   LIG     1     -14.698 -29.460  -1.173  1.00  0.00    -0.001 C 
HETATM   51  H   LIG     1     -14.878 -29.976  -0.224  1.00  0.00     0.064 H 
HETATM   52  H   LIG     1     -15.672 -29.284  -1.645  1.00  0.00     0.064 H 
BRANCH  50  53
HETATM   53  N   LIG     1     -14.106 -28.167  -0.877  1.00  0.00    -0.360 N 
HETATM   54  C   LIG     1     -14.862 -27.074  -0.520  1.00  0.00     0.221 C 
HETATM   55  O   LIG     1     -16.083 -27.118  -0.420  1.00  0.00    -0.273 OA
HETATM   56  H   LIG     1     -13.099 -28.072  -0.899  1.00  0.00     0.162 HD
BRANCH  54  57
HETATM   57  C   LIG     1     -14.022 -25.824  -0.229  1.00  0.00     0.024 C 
HETATM   58  C   LIG     1     -12.796 -25.717  -1.147  1.00  0.00    -0.051 C 
HETATM   59  C   LIG     1     -13.184 -25.382  -2.588  1.00  0.00    -0.040 C 
HETATM   60  H   LIG     1     -12.209 -26.641  -1.145  1.00  0.00     0.034 H 
HETATM   61  H   LIG     1     -12.131 -24.934  -0.759  1.00  0.00     0.034 H 
HETATM   62  C   LIG     1     -14.044 -24.123  -2.680  1.00  0.00     0.035 C 
HETATM   63  H   LIG     1     -13.724 -26.230  -3.025  1.00  0.00     0.036 H 
HETATM   64  H   LIG     1     -12.264 -25.247  -3.171  1.00  0.00     0.036 H 
HETATM   65  C   LIG     1     -15.238 -24.151  -1.728  1.00  0.00    -0.040 C 
HETATM   66  H   LIG     1     -14.393 -24.001  -3.712  1.00  0.00     0.082 H 
HETATM   67  C   LIG     1     -14.848 -24.535  -0.297  1.00  0.00    -0.051 C 
HETATM   68  H   LIG     1     -15.983 -24.858  -2.109  1.00  0.00     0.036 H 
HETATM   69  H   LIG     1     -15.718 -23.165  -1.699  1.00  0.00     0.036 H 
HETATM   70  H   LIG     1     -15.754 -24.628   0.314  1.00  0.00     0.034 H 
HETATM   71  H   LIG     1     -14.258 -23.719   0.142  1.00  0.00     0.034 H 
HETATM   72  H   LIG     1     -13.671 -25.941   0.806  1.00  0.00     0.054 H 
BRANCH  62  73
HETATM   73  O   LIG     1     -13.228 -22.996  -2.370  1.00  0.00    -0.396 OA
HETATM   74  H   LIG     1     -13.109 -22.989  -1.403  1.00  0.00     0.210 HD
ENDBRANCH  62  73
ENDBRANCH  54  57
ENDBRANCH  50  53
ENDBRANCH  47  50
ENDBRANCH   3  47
TORSDOF 13
ENDMDL
