MODEL 1
REMARK VINA RESULT:      -6.8      0.000      0.000
REMARK  11 active torsions:
REMARK  status: ('A' for Active; 'I' for Inactive)
REMARK    1  A    between atoms: N_1  and  S_2 
REMARK    2  A    between atoms: S_2  and  C_5 
REMARK    3  A    between atoms: C_8  and  C_9 
REMARK    4  A    between atoms: C_9  and  C_10 
REMARK    5  A    between atoms: C_14  and  N_15 
REMARK       I    between atoms: N_15  and  C_16 
REMARK       I    between atoms: C_16  and  N_18 
REMARK    6  A    between atoms: N_18  and  C_19 
REMARK    7  A    between atoms: C_20  and  C_21 
REMARK    8  A    between atoms: C_21  and  C_22 
REMARK    9  A    between atoms: C_22  and  N_23 
REMARK       I    between atoms: N_23  and  C_24 
REMARK   10  A    between atoms: C_24  and  C_26 
REMARK   11  A    between atoms: C_29  and  O_30 
ROOT
HETATM    1  C   LIG     1      -8.770 -31.142  -4.394  1.00  0.00     0.057 C 
HETATM    2  C   LIG     1      -8.979 -32.014  -3.383  1.00  0.00    -0.041 C 
HETATM    3  C   LIG     1      -8.735 -33.498  -3.610  1.00  0.00     0.034 C 
HETATM    4  C   LIG     1      -7.737 -33.734  -4.726  1.00  0.00     0.246 C 
HETATM    5  O   LIG     1      -6.867 -34.592  -4.610  1.00  0.00    -0.271 OA
HETATM    6  N   LIG     1      -7.933 -32.990  -5.861  1.00  0.00    -0.224 NA
HETATM    7  C   LIG     1      -8.421 -31.800  -5.697  1.00  0.00     0.032 C 
HETATM    8  H   LIG     1      -9.671 -34.019  -3.823  1.00  0.00     0.054 H 
HETATM    9  H   LIG     1      -8.277 -33.972  -2.739  1.00  0.00     0.054 H 
HETATM   10  H   LIG     1      -8.668 -31.238  -6.609  1.00  0.00     0.118 H 
ENDROOT
BRANCH   1  11
HETATM   11  N   LIG     1      -8.948 -29.779  -4.259  1.00  0.00    -0.307 N 
HETATM   12  C   LIG     1     -10.115 -29.032  -4.393  1.00  0.00     0.325 C 
HETATM   13  N   LIG     1      -9.831 -27.682  -4.206  1.00  0.00    -0.309 N 
HETATM   14  O   LIG     1     -11.205 -29.516  -4.663  1.00  0.00    -0.247 OA
HETATM   15  H   LIG     1      -8.937 -27.460  -3.796  1.00  0.00     0.170 HD
HETATM   16  H   LIG     1      -8.117 -29.220  -4.166  1.00  0.00     0.170 HD
BRANCH  13  17
HETATM   17  C   LIG     1     -10.696 -26.572  -4.308  1.00  0.00     0.036 A 
HETATM   18  C   LIG     1     -11.575 -26.361  -5.366  1.00  0.00    -0.057 A 
HETATM   19  C   LIG     1     -12.470 -25.289  -5.328  1.00  0.00    -0.080 A 
HETATM   20  H   LIG     1     -11.616 -27.036  -6.214  1.00  0.00     0.086 H 
HETATM   21  C   LIG     1     -12.470 -24.401  -4.251  1.00  0.00    -0.076 A 
HETATM   22  H   LIG     1     -13.188 -25.161  -6.136  1.00  0.00     0.083 H 
HETATM   23  C   LIG     1     -11.571 -24.572  -3.190  1.00  0.00    -0.052 A 
HETATM   24  H   LIG     1     -13.187 -23.584  -4.240  1.00  0.00     0.084 H 
HETATM   25  C   LIG     1     -10.687 -25.661  -3.234  1.00  0.00    -0.051 A 
HETATM   26  H   LIG     1      -9.988 -25.795  -2.411  1.00  0.00     0.087 H 
BRANCH  23  27
HETATM   27  C   LIG     1     -11.585 -23.634  -1.999  1.00  0.00    -0.017 C 
HETATM   28  H   LIG     1     -10.705 -22.978  -2.062  1.00  0.00     0.047 H 
HETATM   29  H   LIG     1     -12.447 -22.958  -2.062  1.00  0.00     0.047 H 
BRANCH  27  30
HETATM   30  C   LIG     1     -11.612 -24.334  -0.654  1.00  0.00    -0.054 A 
HETATM   31  C   LIG     1     -12.835 -24.654  -0.041  1.00  0.00    -0.075 A 
HETATM   32  C   LIG     1     -12.871 -25.294   1.198  1.00  0.00    -0.060 A 
HETATM   33  H   LIG     1     -13.776 -24.411  -0.530  1.00  0.00     0.084 H 
HETATM   34  C   LIG     1     -11.675 -25.608   1.844  1.00  0.00     0.074 A 
HETATM   35  H   LIG     1     -13.831 -25.547   1.643  1.00  0.00     0.085 H 
HETATM   36  C   LIG     1     -10.446 -25.290   1.259  1.00  0.00    -0.060 A 
HETATM   37  C   LIG     1     -10.418 -24.650   0.014  1.00  0.00    -0.075 A 
HETATM   38  H   LIG     1      -9.515 -25.537   1.762  1.00  0.00     0.085 H 
HETATM   39  H   LIG     1      -9.455 -24.400  -0.427  1.00  0.00     0.084 H 
BRANCH  34  40
HETATM   40  S   LIG     1     -11.703 -26.438   3.407  1.00  0.00     0.239 S 
HETATM   41  O   LIG     1     -11.242 -25.536   4.419  1.00  0.00    -0.206 OA
HETATM   42  O   LIG     1     -11.164 -27.781   3.246  1.00  0.00    -0.206 OA
BRANCH  40  43
HETATM   43  N   LIG     1     -13.346 -26.662   3.673  1.00  0.00    -0.225 NA
HETATM   44  H   LIG     1     -13.540 -27.659   3.763  1.00  0.00     0.136 HD
HETATM   45  H   LIG     1     -13.880 -26.203   2.935  1.00  0.00     0.136 HD
ENDBRANCH  40  43
ENDBRANCH  34  40
ENDBRANCH  27  30
ENDBRANCH  23  27
ENDBRANCH  13  17
ENDBRANCH   1  11
BRANCH   2  46
HETATM   46  C   LIG     1      -9.478 -31.624  -2.002  1.00  0.00    -0.027 C 
HETATM   47  H   LIG     1      -9.102 -30.619  -1.774  1.00  0.00     0.042 H 
HETATM   48  H   LIG     1      -9.069 -32.302  -1.243  1.00  0.00     0.042 H 
BRANCH  46  49
HETATM   49  C   LIG     1     -11.001 -31.633  -1.835  1.00  0.00    -0.001 C 
HETATM   50  H   LIG     1     -11.309 -32.350  -1.064  1.00  0.00     0.064 H 
HETATM   51  H   LIG     1     -11.476 -31.962  -2.763  1.00  0.00     0.064 H 
BRANCH  49  52
HETATM   52  N   LIG     1     -11.500 -30.314  -1.477  1.00  0.00    -0.360 N 
HETATM   53  C   LIG     1     -12.504 -30.164  -0.553  1.00  0.00     0.221 C 
HETATM   54  O   LIG     1     -13.081 -31.129  -0.063  1.00  0.00    -0.273 OA
HETATM   55  H   LIG     1     -10.965 -29.496  -1.740  1.00  0.00     0.162 HD
BRANCH  53  56
HETATM   56  C   LIG     1     -12.902 -28.710  -0.268  1.00  0.00     0.024 C 
HETATM   57  C   LIG     1     -12.684 -27.841  -1.517  1.00  0.00    -0.051 C 
HETATM   58  C   LIG     1     -13.748 -28.070  -2.596  1.00  0.00    -0.040 C 
HETATM   59  H   LIG     1     -11.693 -28.035  -1.947  1.00  0.00     0.034 H 
HETATM   60  H   LIG     1     -12.685 -26.785  -1.224  1.00  0.00     0.034 H 
HETATM   61  C   LIG     1     -15.175 -27.958  -2.059  1.00  0.00     0.035 C 
HETATM   62  H   LIG     1     -13.612 -29.062  -3.043  1.00  0.00     0.036 H 
HETATM   63  H   LIG     1     -13.593 -27.336  -3.396  1.00  0.00     0.036 H 
HETATM   64  C   LIG     1     -15.391 -28.805  -0.804  1.00  0.00    -0.040 C 
HETATM   65  H   LIG     1     -15.876 -28.288  -2.834  1.00  0.00     0.082 H 
HETATM   66  C   LIG     1     -14.332 -28.552   0.269  1.00  0.00    -0.051 C 
HETATM   67  H   LIG     1     -15.381 -29.869  -1.073  1.00  0.00     0.036 H 
HETATM   68  H   LIG     1     -16.378 -28.588  -0.377  1.00  0.00     0.036 H 
HETATM   69  H   LIG     1     -14.524 -29.216   1.118  1.00  0.00     0.034 H 
HETATM   70  H   LIG     1     -14.453 -27.532   0.659  1.00  0.00     0.034 H 
HETATM   71  H   LIG     1     -12.206 -28.363   0.508  1.00  0.00     0.054 H 
BRANCH  61  72
HETATM   72  O   LIG     1     -15.485 -26.589  -1.791  1.00  0.00    -0.396 OA
HETATM   73  H   LIG     1     -15.054 -26.044  -2.469  1.00  0.00     0.210 HD
ENDBRANCH  61  72
ENDBRANCH  53  56
ENDBRANCH  49  52
ENDBRANCH  46  49
ENDBRANCH   2  46
TORSDOF 11
ENDMDL
MODEL 2
REMARK VINA RESULT:      -6.7      3.348      6.362
REMARK  11 active torsions:
REMARK  status: ('A' for Active; 'I' for Inactive)
REMARK    1  A    between atoms: N_1  and  S_2 
REMARK    2  A    between atoms: S_2  and  C_5 
REMARK    3  A    between atoms: C_8  and  C_9 
REMARK    4  A    between atoms: C_9  and  C_10 
REMARK    5  A    between atoms: C_14  and  N_15 
REMARK       I    between atoms: N_15  and  C_16 
REMARK       I    between atoms: C_16  and  N_18 
REMARK    6  A    between atoms: N_18  and  C_19 
REMARK    7  A    between atoms: C_20  and  C_21 
REMARK    8  A    between atoms: C_21  and  C_22 
REMARK    9  A    between atoms: C_22  and  N_23 
REMARK       I    between atoms: N_23  and  C_24 
REMARK   10  A    between atoms: C_24  and  C_26 
REMARK   11  A    between atoms: C_29  and  O_30 
ROOT
HETATM    1  C   LIG     1      -6.465 -34.438  -1.251  1.00  0.00     0.057 C 
HETATM    2  C   LIG     1      -5.782 -34.893  -2.324  1.00  0.00    -0.041 C 
HETATM    3  C   LIG     1      -4.275 -35.072  -2.233  1.00  0.00     0.034 C 
HETATM    4  C   LIG     1      -3.826 -35.290  -0.802  1.00  0.00     0.246 C 
HETATM    5  O   LIG     1      -2.974 -36.134  -0.540  1.00  0.00    -0.271 OA
HETATM    6  N   LIG     1      -4.374 -34.441   0.124  1.00  0.00    -0.224 NA
HETATM    7  C   LIG     1      -5.588 -34.045  -0.099  1.00  0.00     0.032 C 
HETATM    8  H   LIG     1      -3.753 -34.217  -2.668  1.00  0.00     0.054 H 
HETATM    9  H   LIG     1      -3.941 -35.971  -2.757  1.00  0.00     0.054 H 
HETATM   10  H   LIG     1      -5.996 -33.292   0.590  1.00  0.00     0.118 H 
ENDROOT
BRANCH   1  11
HETATM   11  N   LIG     1      -7.836 -34.270  -1.249  1.00  0.00    -0.307 N 
HETATM   12  C   LIG     1      -8.573 -33.098  -1.106  1.00  0.00     0.325 C 
HETATM   13  N   LIG     1      -9.934 -33.394  -1.129  1.00  0.00    -0.309 N 
HETATM   14  O   LIG     1      -8.072 -31.993  -0.955  1.00  0.00    -0.247 OA
HETATM   15  H   LIG     1     -10.191 -34.311  -1.459  1.00  0.00     0.170 HD
HETATM   16  H   LIG     1      -8.397 -35.105  -1.231  1.00  0.00     0.170 HD
BRANCH  13  17
HETATM   17  C   LIG     1     -11.033 -32.525  -0.960  1.00  0.00     0.036 A 
HETATM   18  C   LIG     1     -11.903 -32.568   0.125  1.00  0.00    -0.057 A 
HETATM   19  C   LIG     1     -12.900 -31.599   0.259  1.00  0.00    -0.080 A 
HETATM   20  H   LIG     1     -11.806 -33.319   0.903  1.00  0.00     0.086 H 
HETATM   21  C   LIG     1     -13.056 -30.601  -0.705  1.00  0.00    -0.076 A 
HETATM   22  H   LIG     1     -13.544 -31.610   1.137  1.00  0.00     0.083 H 
HETATM   23  C   LIG     1     -12.215 -30.557  -1.823  1.00  0.00    -0.052 A 
HETATM   24  H   LIG     1     -13.831 -29.850  -0.567  1.00  0.00     0.084 H 
HETATM   25  C   LIG     1     -11.209 -31.529  -1.939  1.00  0.00    -0.051 A 
HETATM   26  H   LIG     1     -10.555 -31.496  -2.808  1.00  0.00     0.087 H 
BRANCH  23  27
HETATM   27  C   LIG     1     -12.352 -29.458  -2.858  1.00  0.00    -0.017 C 
HETATM   28  H   LIG     1     -11.348 -29.183  -3.209  1.00  0.00     0.047 H 
HETATM   29  H   LIG     1     -12.867 -29.842  -3.749  1.00  0.00     0.047 H 
BRANCH  27  30
HETATM   30  C   LIG     1     -13.084 -28.224  -2.367  1.00  0.00    -0.054 A 
HETATM   31  C   LIG     1     -14.349 -27.894  -2.880  1.00  0.00    -0.075 A 
HETATM   32  C   LIG     1     -15.029 -26.759  -2.437  1.00  0.00    -0.060 A 
HETATM   33  H   LIG     1     -14.821 -28.525  -3.630  1.00  0.00     0.084 H 
HETATM   34  C   LIG     1     -14.437 -25.933  -1.481  1.00  0.00     0.074 A 
HETATM   35  H   LIG     1     -16.015 -26.534  -2.838  1.00  0.00     0.085 H 
HETATM   36  C   LIG     1     -13.175 -26.236  -0.963  1.00  0.00    -0.060 A 
HETATM   37  C   LIG     1     -12.500 -27.378  -1.410  1.00  0.00    -0.075 A 
HETATM   38  H   LIG     1     -12.716 -25.593  -0.216  1.00  0.00     0.085 H 
HETATM   39  H   LIG     1     -11.514 -27.598  -1.006  1.00  0.00     0.084 H 
BRANCH  34  40
HETATM   40  S   LIG     1     -15.295 -24.501  -0.893  1.00  0.00     0.239 S 
HETATM   41  O   LIG     1     -16.598 -24.466  -1.486  1.00  0.00    -0.206 OA
HETATM   42  O   LIG     1     -14.392 -23.360  -0.911  1.00  0.00    -0.206 OA
BRANCH  40  43
HETATM   43  N   LIG     1     -15.516 -24.849   0.735  1.00  0.00    -0.225 NA
HETATM   44  H   LIG     1     -16.515 -24.904   0.935  1.00  0.00     0.136 HD
HETATM   45  H   LIG     1     -15.019 -24.165   1.305  1.00  0.00     0.136 HD
ENDBRANCH  40  43
ENDBRANCH  34  40
ENDBRANCH  27  30
ENDBRANCH  23  27
ENDBRANCH  13  17
ENDBRANCH   1  11
BRANCH   2  46
HETATM   46  C   LIG     1      -6.413 -35.226  -3.666  1.00  0.00    -0.027 C 
HETATM   47  H   LIG     1      -7.344 -35.775  -3.479  1.00  0.00     0.042 H 
HETATM   48  H   LIG     1      -5.757 -35.888  -4.242  1.00  0.00     0.042 H 
BRANCH  46  49
HETATM   49  C   LIG     1      -6.721 -34.017  -4.557  1.00  0.00    -0.001 C 
HETATM   50  H   LIG     1      -6.121 -34.040  -5.474  1.00  0.00     0.064 H 
HETATM   51  H   LIG     1      -6.449 -33.093  -4.039  1.00  0.00     0.064 H 
BRANCH  49  52
HETATM   52  N   LIG     1      -8.129 -33.972  -4.917  1.00  0.00    -0.360 N 
HETATM   53  C   LIG     1      -8.845 -32.804  -4.834  1.00  0.00     0.221 C 
HETATM   54  O   LIG     1      -8.357 -31.779  -4.368  1.00  0.00    -0.273 OA
HETATM   55  H   LIG     1      -8.531 -34.743  -5.437  1.00  0.00     0.162 HD
BRANCH  53  56
HETATM   56  C   LIG     1     -10.311 -32.915  -5.272  1.00  0.00     0.024 C 
HETATM   57  C   LIG     1     -10.892 -31.520  -5.556  1.00  0.00    -0.051 C 
HETATM   58  C   LIG     1     -10.395 -30.925  -6.878  1.00  0.00    -0.040 C 
HETATM   59  H   LIG     1     -10.643 -30.831  -4.739  1.00  0.00     0.034 H 
HETATM   60  H   LIG     1     -11.986 -31.584  -5.576  1.00  0.00     0.034 H 
HETATM   61  C   LIG     1     -10.571 -31.874  -8.063  1.00  0.00     0.035 C 
HETATM   62  H   LIG     1      -9.334 -30.661  -6.787  1.00  0.00     0.036 H 
HETATM   63  H   LIG     1     -10.939 -29.992  -7.064  1.00  0.00     0.036 H 
HETATM   64  C   LIG     1     -10.012 -33.269  -7.778  1.00  0.00    -0.040 C 
HETATM   65  H   LIG     1     -10.054 -31.458  -8.935  1.00  0.00     0.082 H 
HETATM   66  C   LIG     1     -10.533 -33.856  -6.465  1.00  0.00    -0.051 C 
HETATM   67  H   LIG     1      -8.917 -33.226  -7.741  1.00  0.00     0.036 H 
HETATM   68  H   LIG     1     -10.284 -33.949  -8.595  1.00  0.00     0.036 H 
HETATM   69  H   LIG     1     -10.064 -34.833  -6.306  1.00  0.00     0.034 H 
HETATM   70  H   LIG     1     -11.608 -34.057  -6.564  1.00  0.00     0.034 H 
HETATM   71  H   LIG     1     -10.844 -33.331  -4.406  1.00  0.00     0.054 H 
BRANCH  61  72
HETATM   72  O   LIG     1     -11.953 -31.957  -8.415  1.00  0.00    -0.396 OA
HETATM   73  H   LIG     1     -12.353 -32.675  -7.898  1.00  0.00     0.210 HD
ENDBRANCH  61  72
ENDBRANCH  53  56
ENDBRANCH  49  52
ENDBRANCH  46  49
ENDBRANCH   2  46
TORSDOF 11
ENDMDL
MODEL 3
REMARK VINA RESULT:      -6.0      3.534      6.103
REMARK  11 active torsions:
REMARK  status: ('A' for Active; 'I' for Inactive)
REMARK    1  A    between atoms: N_1  and  S_2 
REMARK    2  A    between atoms: S_2  and  C_5 
REMARK    3  A    between atoms: C_8  and  C_9 
REMARK    4  A    between atoms: C_9  and  C_10 
REMARK    5  A    between atoms: C_14  and  N_15 
REMARK       I    between atoms: N_15  and  C_16 
REMARK       I    between atoms: C_16  and  N_18 
REMARK    6  A    between atoms: N_18  and  C_19 
REMARK    7  A    between atoms: C_20  and  C_21 
REMARK    8  A    between atoms: C_21  and  C_22 
REMARK    9  A    between atoms: C_22  and  N_23 
REMARK       I    between atoms: N_23  and  C_24 
REMARK   10  A    between atoms: C_24  and  C_26 
REMARK   11  A    between atoms: C_29  and  O_30 
ROOT
HETATM    1  C   LIG     1      -7.356 -32.267  -1.790  1.00  0.00     0.057 C 
HETATM    2  C   LIG     1      -6.468 -32.490  -2.783  1.00  0.00    -0.041 C 
HETATM    3  C   LIG     1      -5.232 -33.332  -2.509  1.00  0.00     0.034 C 
HETATM    4  C   LIG     1      -5.456 -34.290  -1.356  1.00  0.00     0.246 C 
HETATM    5  O   LIG     1      -5.049 -35.446  -1.422  1.00  0.00    -0.271 OA
HETATM    6  N   LIG     1      -6.057 -33.751  -0.248  1.00  0.00    -0.224 NA
HETATM    7  C   LIG     1      -6.924 -32.810  -0.459  1.00  0.00     0.032 C 
HETATM    8  H   LIG     1      -4.364 -32.699  -2.312  1.00  0.00     0.054 H 
HETATM    9  H   LIG     1      -4.990 -33.982  -3.353  1.00  0.00     0.054 H 
HETATM   10  H   LIG     1      -7.337 -32.311   0.429  1.00  0.00     0.118 H 
ENDROOT
BRANCH   1  11
HETATM   11  N   LIG     1      -8.513 -31.532  -1.966  1.00  0.00    -0.307 N 
HETATM   12  C   LIG     1      -9.811 -31.984  -2.182  1.00  0.00     0.325 C 
HETATM   13  N   LIG     1     -10.666 -30.896  -2.341  1.00  0.00    -0.309 N 
HETATM   14  O   LIG     1     -10.118 -33.166  -2.246  1.00  0.00    -0.247 OA
HETATM   15  H   LIG     1     -10.307 -29.995  -2.064  1.00  0.00     0.170 HD
HETATM   16  H   LIG     1      -8.407 -30.537  -2.072  1.00  0.00     0.170 HD
BRANCH  13  17
HETATM   17  C   LIG     1     -12.046 -30.889  -2.634  1.00  0.00     0.036 A 
HETATM   18  C   LIG     1     -12.635 -31.649  -3.641  1.00  0.00    -0.057 A 
HETATM   19  C   LIG     1     -14.024 -31.657  -3.787  1.00  0.00    -0.080 A 
HETATM   20  H   LIG     1     -12.043 -32.276  -4.300  1.00  0.00     0.086 H 
HETATM   21  C   LIG     1     -14.832 -30.882  -2.953  1.00  0.00    -0.076 A 
HETATM   22  H   LIG     1     -14.479 -32.294  -4.544  1.00  0.00     0.083 H 
HETATM   23  C   LIG     1     -14.261 -30.082  -1.956  1.00  0.00    -0.052 A 
HETATM   24  H   LIG     1     -15.911 -30.920  -3.080  1.00  0.00     0.084 H 
HETATM   25  C   LIG     1     -12.865 -30.094  -1.810  1.00  0.00    -0.051 A 
HETATM   26  H   LIG     1     -12.420 -29.473  -1.035  1.00  0.00     0.087 H 
BRANCH  23  27
HETATM   27  C   LIG     1     -15.130 -29.263  -1.022  1.00  0.00    -0.017 C 
HETATM   28  H   LIG     1     -16.180 -29.540  -1.191  1.00  0.00     0.047 H 
HETATM   29  H   LIG     1     -14.929 -29.541   0.021  1.00  0.00     0.047 H 
BRANCH  27  30
HETATM   30  C   LIG     1     -14.962 -27.763  -1.167  1.00  0.00    -0.054 A 
HETATM   31  C   LIG     1     -14.525 -26.987  -0.081  1.00  0.00    -0.075 A 
HETATM   32  C   LIG     1     -14.370 -25.605  -0.203  1.00  0.00    -0.060 A 
HETATM   33  H   LIG     1     -14.293 -27.455   0.873  1.00  0.00     0.084 H 
HETATM   34  C   LIG     1     -14.668 -24.985  -1.417  1.00  0.00     0.074 A 
HETATM   35  H   LIG     1     -14.014 -25.028   0.648  1.00  0.00     0.085 H 
HETATM   36  C   LIG     1     -15.114 -25.735  -2.508  1.00  0.00    -0.060 A 
HETATM   37  C   LIG     1     -15.264 -27.122  -2.379  1.00  0.00    -0.075 A 
HETATM   38  H   LIG     1     -15.343 -25.251  -3.453  1.00  0.00     0.085 H 
HETATM   39  H   LIG     1     -15.621 -27.694  -3.233  1.00  0.00     0.084 H 
BRANCH  34  40
HETATM   40  S   LIG     1     -14.457 -23.236  -1.594  1.00  0.00     0.239 S 
HETATM   41  O   LIG     1     -13.496 -22.786  -0.634  1.00  0.00    -0.206 OA
HETATM   42  O   LIG     1     -15.762 -22.610  -1.754  1.00  0.00    -0.206 OA
BRANCH  40  43
HETATM   43  N   LIG     1     -13.729 -23.107  -3.102  1.00  0.00    -0.225 NA
HETATM   44  H   LIG     1     -13.722 -24.022  -3.552  1.00  0.00     0.136 HD
HETATM   45  H   LIG     1     -12.803 -22.690  -3.003  1.00  0.00     0.136 HD
ENDBRANCH  40  43
ENDBRANCH  34  40
ENDBRANCH  27  30
ENDBRANCH  23  27
ENDBRANCH  13  17
ENDBRANCH   1  11
BRANCH   2  46
HETATM   46  C   LIG     1      -6.594 -31.928  -4.190  1.00  0.00    -0.027 C 
HETATM   47  H   LIG     1      -5.584 -31.750  -4.579  1.00  0.00     0.042 H 
HETATM   48  H   LIG     1      -7.108 -30.961  -4.170  1.00  0.00     0.042 H 
BRANCH  46  49
HETATM   49  C   LIG     1      -7.355 -32.818  -5.178  1.00  0.00    -0.001 C 
HETATM   50  H   LIG     1      -7.753 -33.711  -4.679  1.00  0.00     0.064 H 
HETATM   51  H   LIG     1      -6.675 -33.182  -5.953  1.00  0.00     0.064 H 
BRANCH  49  52
HETATM   52  N   LIG     1      -8.455 -32.097  -5.800  1.00  0.00    -0.360 N 
HETATM   53  C   LIG     1      -9.702 -32.661  -5.905  1.00  0.00     0.221 C 
HETATM   54  O   LIG     1      -9.917 -33.820  -5.567  1.00  0.00    -0.273 OA
HETATM   55  H   LIG     1      -8.365 -31.101  -5.958  1.00  0.00     0.162 HD
BRANCH  53  56
HETATM   56  C   LIG     1     -10.758 -31.765  -6.563  1.00  0.00     0.024 C 
HETATM   57  C   LIG     1     -10.106 -30.852  -7.614  1.00  0.00    -0.051 C 
HETATM   58  C   LIG     1      -9.732 -31.597  -8.901  1.00  0.00    -0.040 C 
HETATM   59  H   LIG     1      -9.206 -30.379  -7.202  1.00  0.00     0.034 H 
HETATM   60  H   LIG     1     -10.794 -30.034  -7.856  1.00  0.00     0.034 H 
HETATM   61  C   LIG     1     -10.892 -32.405  -9.481  1.00  0.00     0.035 C 
HETATM   62  H   LIG     1      -8.890 -32.272  -8.704  1.00  0.00     0.036 H 
HETATM   63  H   LIG     1      -9.385 -30.863  -9.638  1.00  0.00     0.036 H 
HETATM   64  C   LIG     1     -11.558 -33.300  -8.433  1.00  0.00    -0.040 C 
HETATM   65  H   LIG     1     -10.519 -33.034 -10.296  1.00  0.00     0.082 H 
HETATM   66  C   LIG     1     -11.941 -32.537  -7.164  1.00  0.00    -0.051 C 
HETATM   67  H   LIG     1     -10.880 -34.120  -8.166  1.00  0.00     0.036 H 
HETATM   68  H   LIG     1     -12.464 -33.750  -8.855  1.00  0.00     0.036 H 
HETATM   69  H   LIG     1     -12.373 -33.243  -6.447  1.00  0.00     0.034 H 
HETATM   70  H   LIG     1     -12.745 -31.828  -7.401  1.00  0.00     0.034 H 
HETATM   71  H   LIG     1     -11.143 -31.125  -5.756  1.00  0.00     0.054 H 
BRANCH  61  72
HETATM   72  O   LIG     1     -11.855 -31.522 -10.061  1.00  0.00    -0.396 OA
HETATM   73  H   LIG     1     -11.423 -30.667 -10.218  1.00  0.00     0.210 HD
ENDBRANCH  61  72
ENDBRANCH  53  56
ENDBRANCH  49  52
ENDBRANCH  46  49
ENDBRANCH   2  46
TORSDOF 11
ENDMDL
MODEL 4
REMARK VINA RESULT:      -5.8      3.017      6.939
REMARK  11 active torsions:
REMARK  status: ('A' for Active; 'I' for Inactive)
REMARK    1  A    between atoms: N_1  and  S_2 
REMARK    2  A    between atoms: S_2  and  C_5 
REMARK    3  A    between atoms: C_8  and  C_9 
REMARK    4  A    between atoms: C_9  and  C_10 
REMARK    5  A    between atoms: C_14  and  N_15 
REMARK       I    between atoms: N_15  and  C_16 
REMARK       I    between atoms: C_16  and  N_18 
REMARK    6  A    between atoms: N_18  and  C_19 
REMARK    7  A    between atoms: C_20  and  C_21 
REMARK    8  A    between atoms: C_21  and  C_22 
REMARK    9  A    between atoms: C_22  and  N_23 
REMARK       I    between atoms: N_23  and  C_24 
REMARK   10  A    between atoms: C_24  and  C_26 
REMARK   11  A    between atoms: C_29  and  O_30 
ROOT
HETATM    1  C   LIG     1     -10.033 -25.317  -5.030  1.00  0.00     0.057 C 
HETATM    2  C   LIG     1     -11.244 -24.798  -4.733  1.00  0.00    -0.041 C 
HETATM    3  C   LIG     1     -11.346 -23.650  -3.741  1.00  0.00     0.034 C 
HETATM    4  C   LIG     1     -10.056 -22.856  -3.675  1.00  0.00     0.246 C 
HETATM    5  O   LIG     1     -10.083 -21.630  -3.626  1.00  0.00    -0.271 OA
HETATM    6  N   LIG     1      -8.908 -23.601  -3.596  1.00  0.00    -0.224 NA
HETATM    7  C   LIG     1      -8.912 -24.741  -4.216  1.00  0.00     0.032 C 
HETATM    8  H   LIG     1     -11.617 -24.015  -2.748  1.00  0.00     0.054 H 
HETATM    9  H   LIG     1     -12.095 -22.916  -4.046  1.00  0.00     0.054 H 
HETATM   10  H   LIG     1      -8.030 -25.381  -4.077  1.00  0.00     0.118 H 
ENDROOT
BRANCH   1  11
HETATM   11  N   LIG     1      -9.857 -26.345  -5.937  1.00  0.00    -0.307 N 
HETATM   12  C   LIG     1      -9.767 -27.713  -5.700  1.00  0.00     0.325 C 
HETATM   13  N   LIG     1      -9.556 -28.384  -6.902  1.00  0.00    -0.309 N 
HETATM   14  O   LIG     1      -9.837 -28.218  -4.588  1.00  0.00    -0.247 OA
HETATM   15  H   LIG     1      -9.722 -27.860  -7.747  1.00  0.00     0.170 HD
HETATM   16  H   LIG     1      -9.650 -26.083  -6.885  1.00  0.00     0.170 HD
BRANCH  13  17
HETATM   17  C   LIG     1      -9.349 -29.762  -7.124  1.00  0.00     0.036 A 
HETATM   18  C   LIG     1      -8.290 -30.284  -7.861  1.00  0.00    -0.057 A 
HETATM   19  C   LIG     1      -8.107 -31.667  -7.937  1.00  0.00    -0.080 A 
HETATM   20  H   LIG     1      -7.568 -29.641  -8.353  1.00  0.00     0.086 H 
HETATM   21  C   LIG     1      -8.999 -32.538  -7.308  1.00  0.00    -0.076 A 
HETATM   22  H   LIG     1      -7.247 -32.064  -8.473  1.00  0.00     0.083 H 
HETATM   23  C   LIG     1     -10.092 -32.037  -6.590  1.00  0.00    -0.052 A 
HETATM   24  H   LIG     1      -8.823 -33.609  -7.371  1.00  0.00     0.084 H 
HETATM   25  C   LIG     1     -10.256 -30.646  -6.509  1.00  0.00    -0.051 A 
HETATM   26  H   LIG     1     -11.105 -30.256  -5.952  1.00  0.00     0.087 H 
BRANCH  23  27
HETATM   27  C   LIG     1     -11.046 -32.972  -5.873  1.00  0.00    -0.017 C 
HETATM   28  H   LIG     1     -11.974 -33.039  -6.459  1.00  0.00     0.047 H 
HETATM   29  H   LIG     1     -10.642 -33.993  -5.868  1.00  0.00     0.047 H 
BRANCH  27  30
HETATM   30  C   LIG     1     -11.365 -32.567  -4.447  1.00  0.00    -0.054 A 
HETATM   31  C   LIG     1     -10.428 -32.777  -3.421  1.00  0.00    -0.075 A 
HETATM   32  C   LIG     1     -10.713 -32.411  -2.105  1.00  0.00    -0.060 A 
HETATM   33  H   LIG     1      -9.461 -33.223  -3.640  1.00  0.00     0.084 H 
HETATM   34  C   LIG     1     -11.951 -31.842  -1.801  1.00  0.00     0.074 A 
HETATM   35  H   LIG     1      -9.964 -32.567  -1.331  1.00  0.00     0.085 H 
HETATM   36  C   LIG     1     -12.902 -31.634  -2.804  1.00  0.00    -0.060 A 
HETATM   37  C   LIG     1     -12.608 -32.001  -4.123  1.00  0.00    -0.075 A 
HETATM   38  H   LIG     1     -13.864 -31.189  -2.567  1.00  0.00     0.085 H 
HETATM   39  H   LIG     1     -13.360 -31.841  -4.893  1.00  0.00     0.084 H 
BRANCH  34  40
HETATM   40  S   LIG     1     -12.319 -31.354  -0.141  1.00  0.00     0.239 S 
HETATM   41  O   LIG     1     -11.233 -30.568   0.362  1.00  0.00    -0.206 OA
HETATM   42  O   LIG     1     -12.869 -32.491   0.583  1.00  0.00    -0.206 OA
BRANCH  40  43
HETATM   43  N   LIG     1     -13.616 -30.307  -0.347  1.00  0.00    -0.225 NA
HETATM   44  H   LIG     1     -14.250 -30.689  -1.048  1.00  0.00     0.136 HD
HETATM   45  H   LIG     1     -13.272 -29.372  -0.569  1.00  0.00     0.136 HD
ENDBRANCH  40  43
ENDBRANCH  34  40
ENDBRANCH  27  30
ENDBRANCH  23  27
ENDBRANCH  13  17
ENDBRANCH   1  11
BRANCH   2  46
HETATM   46  C   LIG     1     -12.558 -25.300  -5.308  1.00  0.00    -0.027 C 
HETATM   47  H   LIG     1     -12.407 -25.509  -6.374  1.00  0.00     0.042 H 
HETATM   48  H   LIG     1     -13.328 -24.523  -5.236  1.00  0.00     0.042 H 
BRANCH  46  49
HETATM   49  C   LIG     1     -13.125 -26.554  -4.634  1.00  0.00    -0.001 C 
HETATM   50  H   LIG     1     -12.355 -27.068  -4.045  1.00  0.00     0.064 H 
HETATM   51  H   LIG     1     -13.454 -27.270  -5.393  1.00  0.00     0.064 H 
BRANCH  49  52
HETATM   52  N   LIG     1     -14.242 -26.226  -3.763  1.00  0.00    -0.360 N 
HETATM   53  C   LIG     1     -14.692 -27.118  -2.821  1.00  0.00     0.221 C 
HETATM   54  O   LIG     1     -14.236 -28.253  -2.737  1.00  0.00    -0.273 OA
HETATM   55  H   LIG     1     -14.550 -25.264  -3.696  1.00  0.00     0.162 HD
BRANCH  53  56
HETATM   56  C   LIG     1     -15.861 -26.614  -1.966  1.00  0.00     0.024 C 
HETATM   57  C   LIG     1     -15.769 -27.189  -0.543  1.00  0.00    -0.051 C 
HETATM   58  C   LIG     1     -14.679 -26.519   0.302  1.00  0.00    -0.040 C 
HETATM   59  H   LIG     1     -15.578 -28.269  -0.580  1.00  0.00     0.034 H 
HETATM   60  H   LIG     1     -16.738 -27.070  -0.044  1.00  0.00     0.034 H 
HETATM   61  C   LIG     1     -14.778 -24.994   0.302  1.00  0.00     0.035 C 
HETATM   62  H   LIG     1     -13.691 -26.813  -0.073  1.00  0.00     0.036 H 
HETATM   63  H   LIG     1     -14.754 -26.897   1.328  1.00  0.00     0.036 H 
HETATM   64  C   LIG     1     -14.890 -24.419  -1.111  1.00  0.00    -0.040 C 
HETATM   65  H   LIG     1     -13.885 -24.578   0.783  1.00  0.00     0.082 H 
HETATM   66  C   LIG     1     -15.993 -25.085  -1.933  1.00  0.00    -0.051 C 
HETATM   67  H   LIG     1     -13.933 -24.539  -1.634  1.00  0.00     0.036 H 
HETATM   68  H   LIG     1     -15.097 -23.344  -1.056  1.00  0.00     0.036 H 
HETATM   69  H   LIG     1     -15.991 -24.655  -2.940  1.00  0.00     0.034 H 
HETATM   70  H   LIG     1     -16.969 -24.822  -1.503  1.00  0.00     0.034 H 
HETATM   71  H   LIG     1     -16.765 -27.025  -2.436  1.00  0.00     0.054 H 
BRANCH  61  72
HETATM   72  O   LIG     1     -15.893 -24.581   1.094  1.00  0.00    -0.396 OA
HETATM   73  H   LIG     1     -16.259 -25.367   1.531  1.00  0.00     0.210 HD
ENDBRANCH  61  72
ENDBRANCH  53  56
ENDBRANCH  49  52
ENDBRANCH  46  49
ENDBRANCH   2  46
TORSDOF 11
ENDMDL
MODEL 5
REMARK VINA RESULT:      -5.5      3.827      9.535
REMARK  11 active torsions:
REMARK  status: ('A' for Active; 'I' for Inactive)
REMARK    1  A    between atoms: N_1  and  S_2 
REMARK    2  A    between atoms: S_2  and  C_5 
REMARK    3  A    between atoms: C_8  and  C_9 
REMARK    4  A    between atoms: C_9  and  C_10 
REMARK    5  A    between atoms: C_14  and  N_15 
REMARK       I    between atoms: N_15  and  C_16 
REMARK       I    between atoms: C_16  and  N_18 
REMARK    6  A    between atoms: N_18  and  C_19 
REMARK    7  A    between atoms: C_20  and  C_21 
REMARK    8  A    between atoms: C_21  and  C_22 
REMARK    9  A    between atoms: C_22  and  N_23 
REMARK       I    between atoms: N_23  and  C_24 
REMARK   10  A    between atoms: C_24  and  C_26 
REMARK   11  A    between atoms: C_29  and  O_30 
ROOT
HETATM    1  C   LIG     1     -13.684 -28.114  -0.986  1.00  0.00     0.057 C 
HETATM    2  C   LIG     1     -14.560 -27.467  -1.787  1.00  0.00    -0.041 C 
HETATM    3  C   LIG     1     -15.770 -26.779  -1.175  1.00  0.00     0.034 C 
HETATM    4  C   LIG     1     -15.521 -26.400   0.272  1.00  0.00     0.246 C 
HETATM    5  O   LIG     1     -15.891 -25.311   0.700  1.00  0.00    -0.271 OA
HETATM    6  N   LIG     1     -14.944 -27.373   1.046  1.00  0.00    -0.224 NA
HETATM    7  C   LIG     1     -14.106 -28.165   0.453  1.00  0.00     0.032 C 
HETATM    8  H   LIG     1     -16.658 -27.409  -1.254  1.00  0.00     0.054 H 
HETATM    9  H   LIG     1     -15.987 -25.828  -1.666  1.00  0.00     0.054 H 
HETATM   10  H   LIG     1     -13.714 -29.003   1.047  1.00  0.00     0.118 H 
ENDROOT
BRANCH   1  11
HETATM   11  N   LIG     1     -12.551 -28.743  -1.464  1.00  0.00    -0.307 N 
HETATM   12  C   LIG     1     -12.290 -30.105  -1.578  1.00  0.00     0.325 C 
HETATM   13  N   LIG     1     -11.005 -30.295  -2.081  1.00  0.00    -0.309 N 
HETATM   14  O   LIG     1     -13.080 -30.979  -1.251  1.00  0.00    -0.247 OA
HETATM   15  H   LIG     1     -10.556 -29.491  -2.489  1.00  0.00     0.170 HD
HETATM   16  H   LIG     1     -11.753 -28.160  -1.652  1.00  0.00     0.170 HD
BRANCH  13  17
HETATM   17  C   LIG     1     -10.310 -31.504  -2.301  1.00  0.00     0.036 A 
HETATM   18  C   LIG     1     -10.486 -32.656  -1.541  1.00  0.00    -0.057 A 
HETATM   19  C   LIG     1      -9.832 -33.837  -1.901  1.00  0.00    -0.080 A 
HETATM   20  H   LIG     1     -11.157 -32.678  -0.689  1.00  0.00     0.086 H 
HETATM   21  C   LIG     1      -8.971 -33.866  -3.000  1.00  0.00    -0.076 A 
HETATM   22  H   LIG     1     -10.015 -34.746  -1.331  1.00  0.00     0.083 H 
HETATM   23  C   LIG     1      -8.750 -32.710  -3.759  1.00  0.00    -0.052 A 
HETATM   24  H   LIG     1      -8.486 -34.802  -3.267  1.00  0.00     0.084 H 
HETATM   25  C   LIG     1      -9.425 -31.534  -3.396  1.00  0.00    -0.051 A 
HETATM   26  H   LIG     1      -9.254 -30.636  -3.985  1.00  0.00     0.087 H 
BRANCH  23  27
HETATM   27  C   LIG     1      -7.845 -32.738  -4.975  1.00  0.00    -0.017 C 
HETATM   28  H   LIG     1      -7.126 -31.911  -4.894  1.00  0.00     0.047 H 
HETATM   29  H   LIG     1      -7.231 -33.648  -4.966  1.00  0.00     0.047 H 
BRANCH  27  30
HETATM   30  C   LIG     1      -8.577 -32.657  -6.301  1.00  0.00    -0.054 A 
HETATM   31  C   LIG     1      -8.914 -33.827  -7.002  1.00  0.00    -0.075 A 
HETATM   32  C   LIG     1      -9.583 -33.763  -8.224  1.00  0.00    -0.060 A 
HETATM   33  H   LIG     1      -8.661 -34.804  -6.596  1.00  0.00     0.084 H 
HETATM   34  C   LIG     1      -9.911 -32.520  -8.765  1.00  0.00     0.074 A 
HETATM   35  H   LIG     1      -9.849 -34.685  -8.739  1.00  0.00     0.085 H 
HETATM   36  C   LIG     1      -9.576 -31.342  -8.091  1.00  0.00    -0.060 A 
HETATM   37  C   LIG     1      -8.907 -31.414  -6.863  1.00  0.00    -0.075 A 
HETATM   38  H   LIG     1      -9.834 -30.373  -8.511  1.00  0.00     0.085 H 
HETATM   39  H   LIG     1      -8.644 -30.489  -6.352  1.00  0.00     0.084 H 
BRANCH  34  40
HETATM   40  S   LIG     1     -10.779 -32.422 -10.304  1.00  0.00     0.239 S 
HETATM   41  O   LIG     1     -11.053 -33.749 -10.765  1.00  0.00    -0.206 OA
HETATM   42  O   LIG     1     -10.153 -31.411 -11.144  1.00  0.00    -0.206 OA
BRANCH  40  43
HETATM   43  N   LIG     1     -12.252 -31.756  -9.851  1.00  0.00    -0.225 NA
HETATM   44  H   LIG     1     -12.969 -32.481  -9.867  1.00  0.00     0.136 HD
HETATM   45  H   LIG     1     -12.465 -30.953 -10.444  1.00  0.00     0.136 HD
ENDBRANCH  40  43
ENDBRANCH  34  40
ENDBRANCH  27  30
ENDBRANCH  23  27
ENDBRANCH  13  17
ENDBRANCH   1  11
BRANCH   2  46
HETATM   46  C   LIG     1     -14.444 -27.391  -3.301  1.00  0.00    -0.027 C 
HETATM   47  H   LIG     1     -15.455 -27.299  -3.717  1.00  0.00     0.042 H 
HETATM   48  H   LIG     1     -14.014 -28.318  -3.698  1.00  0.00     0.042 H 
BRANCH  46  49
HETATM   49  C   LIG     1     -13.584 -26.238  -3.829  1.00  0.00    -0.001 C 
HETATM   50  H   LIG     1     -13.586 -26.214  -4.926  1.00  0.00     0.064 H 
HETATM   51  H   LIG     1     -12.542 -26.382  -3.531  1.00  0.00     0.064 H 
BRANCH  49  52
HETATM   52  N   LIG     1     -14.056 -24.956  -3.330  1.00  0.00    -0.360 N 
HETATM   53  C   LIG     1     -13.317 -23.812  -3.504  1.00  0.00     0.221 C 
HETATM   54  O   LIG     1     -12.195 -23.838  -3.999  1.00  0.00    -0.273 OA
HETATM   55  H   LIG     1     -15.024 -24.861  -3.050  1.00  0.00     0.162 HD
BRANCH  53  56
HETATM   56  C   LIG     1     -13.961 -22.539  -2.943  1.00  0.00     0.024 C 
HETATM   57  C   LIG     1     -14.703 -22.848  -1.633  1.00  0.00    -0.051 C 
HETATM   58  C   LIG     1     -13.756 -23.060  -0.446  1.00  0.00    -0.040 C 
HETATM   59  H   LIG     1     -15.331 -23.740  -1.752  1.00  0.00     0.034 H 
HETATM   60  H   LIG     1     -15.390 -22.023  -1.406  1.00  0.00     0.034 H 
HETATM   61  C   LIG     1     -12.744 -21.927  -0.281  1.00  0.00     0.035 C 
HETATM   62  H   LIG     1     -13.216 -24.006  -0.572  1.00  0.00     0.036 H 
HETATM   63  H   LIG     1     -14.359 -23.157   0.465  1.00  0.00     0.036 H 
HETATM   64  C   LIG     1     -12.017 -21.602  -1.587  1.00  0.00    -0.040 C 
HETATM   65  H   LIG     1     -12.003 -22.215   0.473  1.00  0.00     0.082 H 
HETATM   66  C   LIG     1     -12.977 -21.375  -2.756  1.00  0.00    -0.051 C 
HETATM   67  H   LIG     1     -11.333 -22.422  -1.841  1.00  0.00     0.036 H 
HETATM   68  H   LIG     1     -11.409 -20.699  -1.457  1.00  0.00     0.036 H 
HETATM   69  H   LIG     1     -12.391 -21.188  -3.662  1.00  0.00     0.034 H 
HETATM   70  H   LIG     1     -13.547 -20.453  -2.578  1.00  0.00     0.034 H 
HETATM   71  H   LIG     1     -14.709 -22.236  -3.689  1.00  0.00     0.054 H 
BRANCH  61  72
HETATM   72  O   LIG     1     -13.400 -20.762   0.223  1.00  0.00    -0.396 OA
HETATM   73  H   LIG     1     -12.901 -20.446   0.994  1.00  0.00     0.210 HD
ENDBRANCH  61  72
ENDBRANCH  53  56
ENDBRANCH  49  52
ENDBRANCH  46  49
ENDBRANCH   2  46
TORSDOF 11
ENDMDL
MODEL 6
REMARK VINA RESULT:      -5.5      3.447      8.326
REMARK  11 active torsions:
REMARK  status: ('A' for Active; 'I' for Inactive)
REMARK    1  A    between atoms: N_1  and  S_2 
REMARK    2  A    between atoms: S_2  and  C_5 
REMARK    3  A    between atoms: C_8  and  C_9 
REMARK    4  A    between atoms: C_9  and  C_10 
REMARK    5  A    between atoms: C_14  and  N_15 
REMARK       I    between atoms: N_15  and  C_16 
REMARK       I    between atoms: C_16  and  N_18 
REMARK    6  A    between atoms: N_18  and  C_19 
REMARK    7  A    between atoms: C_20  and  C_21 
REMARK    8  A    between atoms: C_21  and  C_22 
REMARK    9  A    between atoms: C_22  and  N_23 
REMARK       I    between atoms: N_23  and  C_24 
REMARK   10  A    between atoms: C_24  and  C_26 
REMARK   11  A    between atoms: C_29  and  O_30 
ROOT
HETATM    1  C   LIG     1     -13.806 -27.962  -1.225  1.00  0.00     0.057 C 
HETATM    2  C   LIG     1     -14.424 -27.033  -1.986  1.00  0.00    -0.041 C 
HETATM    3  C   LIG     1     -15.595 -26.251  -1.413  1.00  0.00     0.034 C 
HETATM    4  C   LIG     1     -15.534 -26.187   0.100  1.00  0.00     0.246 C 
HETATM    5  O   LIG     1     -15.793 -25.141   0.688  1.00  0.00    -0.271 OA
HETATM    6  N   LIG     1     -15.253 -27.371   0.731  1.00  0.00    -0.224 NA
HETATM    7  C   LIG     1     -14.463 -28.188   0.105  1.00  0.00     0.032 C 
HETATM    8  H   LIG     1     -16.546 -26.680  -1.735  1.00  0.00     0.054 H 
HETATM    9  H   LIG     1     -15.575 -25.204  -1.725  1.00  0.00     0.054 H 
HETATM   10  H   LIG     1     -14.311 -29.176   0.563  1.00  0.00     0.118 H 
ENDROOT
BRANCH   1  11
HETATM   11  N   LIG     1     -12.722 -28.696  -1.666  1.00  0.00    -0.307 N 
HETATM   12  C   LIG     1     -12.708 -29.877  -2.402  1.00  0.00     0.325 C 
HETATM   13  N   LIG     1     -11.393 -30.291  -2.600  1.00  0.00    -0.309 N 
HETATM   14  O   LIG     1     -13.717 -30.456  -2.779  1.00  0.00    -0.247 OA
HETATM   15  H   LIG     1     -10.672 -29.613  -2.408  1.00  0.00     0.170 HD
HETATM   16  H   LIG     1     -11.817 -28.421  -1.324  1.00  0.00     0.170 HD
BRANCH  13  17
HETATM   17  C   LIG     1     -10.916 -31.457  -3.237  1.00  0.00     0.036 A 
HETATM   18  C   LIG     1     -11.257 -31.833  -4.533  1.00  0.00    -0.057 A 
HETATM   19  C   LIG     1     -10.652 -32.948  -5.118  1.00  0.00    -0.080 A 
HETATM   20  H   LIG     1     -11.958 -31.256  -5.127  1.00  0.00     0.086 H 
HETATM   21  C   LIG     1      -9.730 -33.714  -4.402  1.00  0.00    -0.076 A 
HETATM   22  H   LIG     1     -10.886 -33.205  -6.149  1.00  0.00     0.083 H 
HETATM   23  C   LIG     1      -9.397 -33.375  -3.085  1.00  0.00    -0.052 A 
HETATM   24  H   LIG     1      -9.263 -34.567  -4.888  1.00  0.00     0.084 H 
HETATM   25  C   LIG     1     -10.001 -32.245  -2.514  1.00  0.00    -0.051 A 
HETATM   26  H   LIG     1      -9.744 -31.981  -1.490  1.00  0.00     0.087 H 
BRANCH  23  27
HETATM   27  C   LIG     1      -8.371 -34.179  -2.310  1.00  0.00    -0.017 C 
HETATM   28  H   LIG     1      -8.863 -34.613  -1.428  1.00  0.00     0.047 H 
HETATM   29  H   LIG     1      -8.042 -35.042  -2.904  1.00  0.00     0.047 H 
BRANCH  27  30
HETATM   30  C   LIG     1      -7.150 -33.387  -1.883  1.00  0.00    -0.054 A 
HETATM   31  C   LIG     1      -6.358 -32.728  -2.837  1.00  0.00    -0.075 A 
HETATM   32  C   LIG     1      -5.231 -32.001  -2.455  1.00  0.00    -0.060 A 
HETATM   33  H   LIG     1      -6.617 -32.772  -3.893  1.00  0.00     0.084 H 
HETATM   34  C   LIG     1      -4.878 -31.938  -1.106  1.00  0.00     0.074 A 
HETATM   35  H   LIG     1      -4.643 -31.485  -3.212  1.00  0.00     0.085 H 
HETATM   36  C   LIG     1      -5.645 -32.594  -0.140  1.00  0.00    -0.060 A 
HETATM   37  C   LIG     1      -6.777 -33.320  -0.531  1.00  0.00    -0.075 A 
HETATM   38  H   LIG     1      -5.371 -32.543   0.910  1.00  0.00     0.085 H 
HETATM   39  H   LIG     1      -7.361 -33.834   0.230  1.00  0.00     0.084 H 
BRANCH  34  40
HETATM   40  S   LIG     1      -3.463 -31.002  -0.603  1.00  0.00     0.239 S 
HETATM   41  O   LIG     1      -3.896 -29.922   0.232  1.00  0.00    -0.206 OA
HETATM   42  O   LIG     1      -2.584 -30.809  -1.746  1.00  0.00    -0.206 OA
BRANCH  40  43
HETATM   43  N   LIG     1      -2.646 -32.081   0.392  1.00  0.00    -0.225 NA
HETATM   44  H   LIG     1      -3.287 -32.441   1.098  1.00  0.00     0.136 HD
HETATM   45  H   LIG     1      -1.816 -31.631   0.780  1.00  0.00     0.136 HD
ENDBRANCH  40  43
ENDBRANCH  34  40
ENDBRANCH  27  30
ENDBRANCH  23  27
ENDBRANCH  13  17
ENDBRANCH   1  11
BRANCH   2  46
HETATM   46  C   LIG     1     -14.048 -26.712  -3.424  1.00  0.00    -0.027 C 
HETATM   47  H   LIG     1     -14.947 -26.352  -3.940  1.00  0.00     0.042 H 
HETATM   48  H   LIG     1     -13.718 -27.619  -3.943  1.00  0.00     0.042 H 
BRANCH  46  49
HETATM   49  C   LIG     1     -12.934 -25.674  -3.588  1.00  0.00    -0.001 C 
HETATM   50  H   LIG     1     -13.185 -24.946  -4.370  1.00  0.00     0.064 H 
HETATM   51  H   LIG     1     -12.012 -26.163  -3.914  1.00  0.00     0.064 H 
BRANCH  49  52
HETATM   52  N   LIG     1     -12.688 -24.961  -2.344  1.00  0.00    -0.360 N 
HETATM   53  C   LIG     1     -11.412 -24.777  -1.873  1.00  0.00     0.221 C 
HETATM   54  O   LIG     1     -10.440 -25.281  -2.426  1.00  0.00    -0.273 OA
HETATM   55  H   LIG     1     -13.433 -24.410  -1.935  1.00  0.00     0.162 HD
BRANCH  53  56
HETATM   56  C   LIG     1     -11.319 -23.986  -0.562  1.00  0.00     0.024 C 
HETATM   57  C   LIG     1     -12.280 -24.572   0.485  1.00  0.00    -0.051 C 
HETATM   58  C   LIG     1     -11.780 -25.892   1.082  1.00  0.00    -0.040 C 
HETATM   59  H   LIG     1     -13.272 -24.734   0.044  1.00  0.00     0.034 H 
HETATM   60  H   LIG     1     -12.423 -23.841   1.290  1.00  0.00     0.034 H 
HETATM   61  C   LIG     1     -10.345 -25.806   1.602  1.00  0.00     0.035 C 
HETATM   62  H   LIG     1     -11.838 -26.683   0.325  1.00  0.00     0.036 H 
HETATM   63  H   LIG     1     -12.454 -26.182   1.897  1.00  0.00     0.036 H 
HETATM   64  C   LIG     1      -9.388 -25.205   0.570  1.00  0.00    -0.040 C 
HETATM   65  H   LIG     1      -9.997 -26.812   1.862  1.00  0.00     0.082 H 
HETATM   66  C   LIG     1      -9.894 -23.880  -0.001  1.00  0.00    -0.051 C 
HETATM   67  H   LIG     1      -9.241 -25.916  -0.253  1.00  0.00     0.036 H 
HETATM   68  H   LIG     1      -8.408 -25.034   1.031  1.00  0.00     0.036 H 
HETATM   69  H   LIG     1      -9.184 -23.528  -0.757  1.00  0.00     0.034 H 
HETATM   70  H   LIG     1      -9.880 -23.119   0.792  1.00  0.00     0.034 H 
HETATM   71  H   LIG     1     -11.667 -22.973  -0.807  1.00  0.00     0.054 H 
BRANCH  61  72
HETATM   72  O   LIG     1     -10.313 -25.043   2.809  1.00  0.00    -0.396 OA
HETATM   73  H   LIG     1      -9.552 -24.441   2.765  1.00  0.00     0.210 HD
ENDBRANCH  61  72
ENDBRANCH  53  56
ENDBRANCH  49  52
ENDBRANCH  46  49
ENDBRANCH   2  46
TORSDOF 11
ENDMDL
MODEL 7
REMARK VINA RESULT:      -5.4      3.573      8.470
REMARK  11 active torsions:
REMARK  status: ('A' for Active; 'I' for Inactive)
REMARK    1  A    between atoms: N_1  and  S_2 
REMARK    2  A    between atoms: S_2  and  C_5 
REMARK    3  A    between atoms: C_8  and  C_9 
REMARK    4  A    between atoms: C_9  and  C_10 
REMARK    5  A    between atoms: C_14  and  N_15 
REMARK       I    between atoms: N_15  and  C_16 
REMARK       I    between atoms: C_16  and  N_18 
REMARK    6  A    between atoms: N_18  and  C_19 
REMARK    7  A    between atoms: C_20  and  C_21 
REMARK    8  A    between atoms: C_21  and  C_22 
REMARK    9  A    between atoms: C_22  and  N_23 
REMARK       I    between atoms: N_23  and  C_24 
REMARK   10  A    between atoms: C_24  and  C_26 
REMARK   11  A    between atoms: C_29  and  O_30 
ROOT
HETATM    1  C   LIG     1     -13.789 -27.929  -1.132  1.00  0.00     0.057 C 
HETATM    2  C   LIG     1     -14.720 -27.255  -1.842  1.00  0.00    -0.041 C 
HETATM    3  C   LIG     1     -15.839 -26.530  -1.114  1.00  0.00     0.034 C 
HETATM    4  C   LIG     1     -15.435 -26.159   0.300  1.00  0.00     0.246 C 
HETATM    5  O   LIG     1     -15.725 -25.059   0.760  1.00  0.00    -0.271 OA
HETATM    6  N   LIG     1     -14.813 -27.150   1.015  1.00  0.00    -0.224 NA
HETATM    7  C   LIG     1     -14.065 -27.968   0.342  1.00  0.00     0.032 C 
HETATM    8  H   LIG     1     -16.751 -27.131  -1.101  1.00  0.00     0.054 H 
HETATM    9  H   LIG     1     -16.075 -25.572  -1.583  1.00  0.00     0.054 H 
HETATM   10  H   LIG     1     -13.641 -28.818   0.896  1.00  0.00     0.118 H 
ENDROOT
BRANCH   1  11
HETATM   11  N   LIG     1     -12.730 -28.594  -1.720  1.00  0.00    -0.307 N 
HETATM   12  C   LIG     1     -12.708 -29.853  -2.311  1.00  0.00     0.325 C 
HETATM   13  N   LIG     1     -11.418 -30.144  -2.748  1.00  0.00    -0.309 N 
HETATM   14  O   LIG     1     -13.686 -30.584  -2.393  1.00  0.00    -0.247 OA
HETATM   15  H   LIG     1     -10.771 -29.373  -2.792  1.00  0.00     0.170 HD
HETATM   16  H   LIG     1     -11.819 -28.179  -1.617  1.00  0.00     0.170 HD
BRANCH  13  17
HETATM   17  C   LIG     1     -10.930 -31.326  -3.346  1.00  0.00     0.036 A 
HETATM   18  C   LIG     1     -11.221 -31.719  -4.649  1.00  0.00    -0.057 A 
HETATM   19  C   LIG     1     -10.606 -32.850  -5.191  1.00  0.00    -0.080 A 
HETATM   20  H   LIG     1     -11.889 -31.143  -5.281  1.00  0.00     0.086 H 
HETATM   21  C   LIG     1      -9.724 -33.615  -4.426  1.00  0.00    -0.076 A 
HETATM   22  H   LIG     1     -10.800 -33.120  -6.227  1.00  0.00     0.083 H 
HETATM   23  C   LIG     1      -9.443 -33.260  -3.101  1.00  0.00    -0.052 A 
HETATM   24  H   LIG     1      -9.248 -34.482  -4.878  1.00  0.00     0.084 H 
HETATM   25  C   LIG     1     -10.056 -32.113  -2.573  1.00  0.00    -0.051 A 
HETATM   26  H   LIG     1      -9.839 -31.836  -1.544  1.00  0.00     0.087 H 
BRANCH  23  27
HETATM   27  C   LIG     1      -8.461 -34.063  -2.271  1.00  0.00    -0.017 C 
HETATM   28  H   LIG     1      -8.978 -34.422  -1.370  1.00  0.00     0.047 H 
HETATM   29  H   LIG     1      -8.168 -34.974  -2.810  1.00  0.00     0.047 H 
BRANCH  27  30
HETATM   30  C   LIG     1      -7.207 -33.305  -1.879  1.00  0.00    -0.054 A 
HETATM   31  C   LIG     1      -6.416 -32.682  -2.858  1.00  0.00    -0.075 A 
HETATM   32  C   LIG     1      -5.258 -31.985  -2.508  1.00  0.00    -0.060 A 
HETATM   33  H   LIG     1      -6.699 -32.729  -3.908  1.00  0.00     0.084 H 
HETATM   34  C   LIG     1      -4.875 -31.918  -1.169  1.00  0.00     0.074 A 
HETATM   35  H   LIG     1      -4.672 -31.496  -3.284  1.00  0.00     0.085 H 
HETATM   36  C   LIG     1      -5.641 -32.539  -0.178  1.00  0.00    -0.060 A 
HETATM   37  C   LIG     1      -6.802 -33.234  -0.536  1.00  0.00    -0.075 A 
HETATM   38  H   LIG     1      -5.342 -32.484   0.865  1.00  0.00     0.085 H 
HETATM   39  H   LIG     1      -7.385 -33.721   0.243  1.00  0.00     0.084 H 
BRANCH  34  40
HETATM   40  S   LIG     1      -3.421 -31.021  -0.706  1.00  0.00     0.239 S 
HETATM   41  O   LIG     1      -3.210 -29.964  -1.649  1.00  0.00    -0.206 OA
HETATM   42  O   LIG     1      -2.375 -31.962  -0.332  1.00  0.00    -0.206 OA
BRANCH  40  43
HETATM   43  N   LIG     1      -3.883 -30.294   0.736  1.00  0.00    -0.225 NA
HETATM   44  H   LIG     1      -4.760 -29.792   0.594  1.00  0.00     0.136 HD
HETATM   45  H   LIG     1      -3.125 -29.708   1.085  1.00  0.00     0.136 HD
ENDBRANCH  40  43
ENDBRANCH  34  40
ENDBRANCH  27  30
ENDBRANCH  23  27
ENDBRANCH  13  17
ENDBRANCH   1  11
BRANCH   2  46
HETATM   46  C   LIG     1     -14.755 -27.182  -3.360  1.00  0.00    -0.027 C 
HETATM   47  H   LIG     1     -15.778 -26.931  -3.667  1.00  0.00     0.042 H 
HETATM   48  H   LIG     1     -14.518 -28.160  -3.795  1.00  0.00     0.042 H 
BRANCH  46  49
HETATM   49  C   LIG     1     -13.788 -26.170  -3.984  1.00  0.00    -0.001 C 
HETATM   50  H   LIG     1     -13.976 -26.056  -5.059  1.00  0.00     0.064 H 
HETATM   51  H   LIG     1     -12.760 -26.530  -3.893  1.00  0.00     0.064 H 
BRANCH  49  52
HETATM   52  N   LIG     1     -13.903 -24.868  -3.346  1.00  0.00    -0.360 N 
HETATM   53  C   LIG     1     -13.078 -23.830  -3.701  1.00  0.00     0.221 C 
HETATM   54  O   LIG     1     -12.156 -23.981  -4.496  1.00  0.00    -0.273 OA
HETATM   55  H   LIG     1     -14.729 -24.657  -2.800  1.00  0.00     0.162 HD
BRANCH  53  56
HETATM   56  C   LIG     1     -13.340 -22.516  -2.955  1.00  0.00     0.024 C 
HETATM   57  C   LIG     1     -13.990 -22.797  -1.590  1.00  0.00    -0.051 C 
HETATM   58  C   LIG     1     -12.998 -23.349  -0.559  1.00  0.00    -0.040 C 
HETATM   59  H   LIG     1     -14.819 -23.507  -1.702  1.00  0.00     0.034 H 
HETATM   60  H   LIG     1     -14.434 -21.871  -1.206  1.00  0.00     0.034 H 
HETATM   61  C   LIG     1     -11.736 -22.497  -0.432  1.00  0.00     0.035 C 
HETATM   62  H   LIG     1     -12.712 -24.371  -0.835  1.00  0.00     0.036 H 
HETATM   63  H   LIG     1     -13.505 -23.410   0.411  1.00  0.00     0.036 H 
HETATM   64  C   LIG     1     -11.096 -22.198  -1.789  1.00  0.00    -0.040 C 
HETATM   65  H   LIG     1     -11.007 -23.027   0.192  1.00  0.00     0.082 H 
HETATM   66  C   LIG     1     -12.095 -21.631  -2.799  1.00  0.00    -0.051 C 
HETATM   67  H   LIG     1     -10.656 -23.116  -2.198  1.00  0.00     0.036 H 
HETATM   68  H   LIG     1     -10.282 -21.475  -1.662  1.00  0.00     0.036 H 
HETATM   69  H   LIG     1     -11.582 -21.479  -3.754  1.00  0.00     0.034 H 
HETATM   70  H   LIG     1     -12.409 -20.631  -2.470  1.00  0.00     0.034 H 
HETATM   71  H   LIG     1     -14.071 -21.972  -3.569  1.00  0.00     0.054 H 
BRANCH  61  72
HETATM   72  O   LIG     1     -12.040 -21.279   0.251  1.00  0.00    -0.396 OA
HETATM   73  H   LIG     1     -12.110 -20.572  -0.412  1.00  0.00     0.210 HD
ENDBRANCH  61  72
ENDBRANCH  53  56
ENDBRANCH  49  52
ENDBRANCH  46  49
ENDBRANCH   2  46
TORSDOF 11
ENDMDL
MODEL 8
REMARK VINA RESULT:      -5.1      5.144      8.366
REMARK  11 active torsions:
REMARK  status: ('A' for Active; 'I' for Inactive)
REMARK    1  A    between atoms: N_1  and  S_2 
REMARK    2  A    between atoms: S_2  and  C_5 
REMARK    3  A    between atoms: C_8  and  C_9 
REMARK    4  A    between atoms: C_9  and  C_10 
REMARK    5  A    between atoms: C_14  and  N_15 
REMARK       I    between atoms: N_15  and  C_16 
REMARK       I    between atoms: C_16  and  N_18 
REMARK    6  A    between atoms: N_18  and  C_19 
REMARK    7  A    between atoms: C_20  and  C_21 
REMARK    8  A    between atoms: C_21  and  C_22 
REMARK    9  A    between atoms: C_22  and  N_23 
REMARK       I    between atoms: N_23  and  C_24 
REMARK   10  A    between atoms: C_24  and  C_26 
REMARK   11  A    between atoms: C_29  and  O_30 
ROOT
HETATM    1  C   LIG     1     -13.923 -28.145  -2.378  1.00  0.00     0.057 C 
HETATM    2  C   LIG     1     -12.961 -28.985  -2.820  1.00  0.00    -0.041 C 
HETATM    3  C   LIG     1     -13.127 -30.483  -2.626  1.00  0.00     0.034 C 
HETATM    4  C   LIG     1     -14.589 -30.871  -2.510  1.00  0.00     0.246 C 
HETATM    5  O   LIG     1     -15.013 -31.871  -3.081  1.00  0.00    -0.271 OA
HETATM    6  N   LIG     1     -15.343 -30.083  -1.679  1.00  0.00    -0.224 NA
HETATM    7  C   LIG     1     -15.020 -28.829  -1.618  1.00  0.00     0.032 C 
HETATM    8  H   LIG     1     -12.574 -30.828  -1.750  1.00  0.00     0.054 H 
HETATM    9  H   LIG     1     -12.771 -31.046  -3.492  1.00  0.00     0.054 H 
HETATM   10  H   LIG     1     -15.562 -28.215  -0.884  1.00  0.00     0.118 H 
ENDROOT
BRANCH   1  11
HETATM   11  N   LIG     1     -13.854 -26.774  -2.537  1.00  0.00    -0.307 N 
HETATM   12  C   LIG     1     -13.950 -25.776  -1.572  1.00  0.00     0.325 C 
HETATM   13  N   LIG     1     -13.861 -24.526  -2.179  1.00  0.00    -0.309 N 
HETATM   14  O   LIG     1     -14.115 -25.996  -0.380  1.00  0.00    -0.247 OA
HETATM   15  H   LIG     1     -13.527 -24.508  -3.130  1.00  0.00     0.170 HD
HETATM   16  H   LIG     1     -13.851 -26.426  -3.481  1.00  0.00     0.170 HD
BRANCH  13  17
HETATM   17  C   LIG     1     -13.966 -23.246  -1.594  1.00  0.00     0.036 A 
HETATM   18  C   LIG     1     -12.964 -22.651  -0.833  1.00  0.00    -0.057 A 
HETATM   19  C   LIG     1     -13.116 -21.337  -0.383  1.00  0.00    -0.080 A 
HETATM   20  H   LIG     1     -12.036 -23.168  -0.610  1.00  0.00     0.086 H 
HETATM   21  C   LIG     1     -14.283 -20.622  -0.660  1.00  0.00    -0.076 A 
HETATM   22  H   LIG     1     -12.306 -20.862   0.167  1.00  0.00     0.083 H 
HETATM   23  C   LIG     1     -15.320 -21.212  -1.393  1.00  0.00    -0.052 A 
HETATM   24  H   LIG     1     -14.368 -19.595  -0.310  1.00  0.00     0.084 H 
HETATM   25  C   LIG     1     -15.148 -22.527  -1.851  1.00  0.00    -0.051 A 
HETATM   26  H   LIG     1     -15.953 -22.987  -2.420  1.00  0.00     0.087 H 
BRANCH  23  27
HETATM   27  C   LIG     1     -16.576 -20.433  -1.728  1.00  0.00    -0.017 C 
HETATM   28  H   LIG     1     -17.448 -21.047  -1.460  1.00  0.00     0.047 H 
HETATM   29  H   LIG     1     -16.650 -19.543  -1.090  1.00  0.00     0.047 H 
BRANCH  27  30
HETATM   30  C   LIG     1     -16.676 -20.002  -3.179  1.00  0.00    -0.054 A 
HETATM   31  C   LIG     1     -15.514 -19.763  -3.932  1.00  0.00    -0.075 A 
HETATM   32  C   LIG     1     -15.595 -19.362  -5.266  1.00  0.00    -0.060 A 
HETATM   33  H   LIG     1     -14.531 -19.894  -3.486  1.00  0.00     0.084 H 
HETATM   34  C   LIG     1     -16.847 -19.183  -5.856  1.00  0.00     0.074 A 
HETATM   35  H   LIG     1     -14.681 -19.200  -5.834  1.00  0.00     0.085 H 
HETATM   36  C   LIG     1     -18.016 -19.404  -5.123  1.00  0.00    -0.060 A 
HETATM   37  C   LIG     1     -17.927 -19.809  -3.785  1.00  0.00    -0.075 A 
HETATM   38  H   LIG     1     -18.990 -19.266  -5.584  1.00  0.00     0.085 H 
HETATM   39  H   LIG     1     -18.845 -19.970  -3.223  1.00  0.00     0.084 H 
BRANCH  34  40
HETATM   40  S   LIG     1     -16.966 -18.695  -7.553  1.00  0.00     0.239 S 
HETATM   41  O   LIG     1     -16.549 -17.331  -7.673  1.00  0.00    -0.206 OA
HETATM   42  O   LIG     1     -18.220 -19.186  -8.106  1.00  0.00    -0.206 OA
BRANCH  40  43
HETATM   43  N   LIG     1     -15.777 -19.628  -8.286  1.00  0.00    -0.225 NA
HETATM   44  H   LIG     1     -16.216 -20.400  -8.787  1.00  0.00     0.136 HD
HETATM   45  H   LIG     1     -15.093 -19.924  -7.590  1.00  0.00     0.136 HD
ENDBRANCH  40  43
ENDBRANCH  34  40
ENDBRANCH  27  30
ENDBRANCH  23  27
ENDBRANCH  13  17
ENDBRANCH   1  11
BRANCH   2  46
HETATM   46  C   LIG     1     -11.674 -28.538  -3.495  1.00  0.00    -0.027 C 
HETATM   47  H   LIG     1     -11.029 -28.084  -2.733  1.00  0.00     0.042 H 
HETATM   48  H   LIG     1     -11.884 -27.766  -4.243  1.00  0.00     0.042 H 
BRANCH  46  49
HETATM   49  C   LIG     1     -10.895 -29.650  -4.206  1.00  0.00    -0.001 C 
HETATM   50  H   LIG     1     -10.325 -29.251  -5.054  1.00  0.00     0.064 H 
HETATM   51  H   LIG     1     -11.589 -30.383  -4.625  1.00  0.00     0.064 H 
BRANCH  49  52
HETATM   52  N   LIG     1      -9.978 -30.317  -3.296  1.00  0.00    -0.360 N 
HETATM   53  C   LIG     1      -8.800 -30.859  -3.748  1.00  0.00     0.221 C 
HETATM   54  O   LIG     1      -8.518 -30.886  -4.941  1.00  0.00    -0.273 OA
HETATM   55  H   LIG     1     -10.095 -30.193  -2.298  1.00  0.00     0.162 HD
BRANCH  53  56
HETATM   56  C   LIG     1      -7.932 -31.506  -2.662  1.00  0.00     0.024 C 
HETATM   57  C   LIG     1      -8.817 -32.104  -1.555  1.00  0.00    -0.051 C 
HETATM   58  C   LIG     1      -9.505 -33.407  -1.981  1.00  0.00    -0.040 C 
HETATM   59  H   LIG     1      -9.583 -31.381  -1.248  1.00  0.00     0.034 H 
HETATM   60  H   LIG     1      -8.203 -32.292  -0.667  1.00  0.00     0.034 H 
HETATM   61  C   LIG     1      -8.532 -34.434  -2.557  1.00  0.00     0.035 C 
HETATM   62  H   LIG     1     -10.277 -33.188  -2.728  1.00  0.00     0.036 H 
HETATM   63  H   LIG     1     -10.017 -33.829  -1.108  1.00  0.00     0.036 H 
HETATM   64  C   LIG     1      -7.635 -33.839  -3.645  1.00  0.00    -0.040 C 
HETATM   65  H   LIG     1      -9.101 -35.266  -2.986  1.00  0.00     0.082 H 
HETATM   66  C   LIG     1      -6.943 -32.551  -3.198  1.00  0.00    -0.051 C 
HETATM   67  H   LIG     1      -8.233 -33.630  -4.541  1.00  0.00     0.036 H 
HETATM   68  H   LIG     1      -6.866 -34.567  -3.928  1.00  0.00     0.036 H 
HETATM   69  H   LIG     1      -6.352 -32.160  -4.033  1.00  0.00     0.034 H 
HETATM   70  H   LIG     1      -6.216 -32.789  -2.409  1.00  0.00     0.034 H 
HETATM   71  H   LIG     1      -7.354 -30.683  -2.220  1.00  0.00     0.054 H 
BRANCH  61  72
HETATM   72  O   LIG     1      -7.735 -34.989  -1.509  1.00  0.00    -0.396 OA
HETATM   73  H   LIG     1      -7.871 -34.451  -0.711  1.00  0.00     0.210 HD
ENDBRANCH  61  72
ENDBRANCH  53  56
ENDBRANCH  49  52
ENDBRANCH  46  49
ENDBRANCH   2  46
TORSDOF 11
ENDMDL
MODEL 9
REMARK VINA RESULT:      -4.9      4.983      7.944
REMARK  11 active torsions:
REMARK  status: ('A' for Active; 'I' for Inactive)
REMARK    1  A    between atoms: N_1  and  S_2 
REMARK    2  A    between atoms: S_2  and  C_5 
REMARK    3  A    between atoms: C_8  and  C_9 
REMARK    4  A    between atoms: C_9  and  C_10 
REMARK    5  A    between atoms: C_14  and  N_15 
REMARK       I    between atoms: N_15  and  C_16 
REMARK       I    between atoms: C_16  and  N_18 
REMARK    6  A    between atoms: N_18  and  C_19 
REMARK    7  A    between atoms: C_20  and  C_21 
REMARK    8  A    between atoms: C_21  and  C_22 
REMARK    9  A    between atoms: C_22  and  N_23 
REMARK       I    between atoms: N_23  and  C_24 
REMARK   10  A    between atoms: C_24  and  C_26 
REMARK   11  A    between atoms: C_29  and  O_30 
ROOT
HETATM    1  C   LIG     1     -13.657 -28.500  -2.748  1.00  0.00     0.057 C 
HETATM    2  C   LIG     1     -12.954 -29.503  -3.317  1.00  0.00    -0.041 C 
HETATM    3  C   LIG     1     -13.340 -30.946  -3.031  1.00  0.00     0.034 C 
HETATM    4  C   LIG     1     -14.799 -31.064  -2.638  1.00  0.00     0.246 C 
HETATM    5  O   LIG     1     -15.489 -31.979  -3.079  1.00  0.00    -0.271 OA
HETATM    6  N   LIG     1     -15.240 -30.145  -1.722  1.00  0.00    -0.224 NA
HETATM    7  C   LIG     1     -14.698 -28.968  -1.774  1.00  0.00     0.032 C 
HETATM    8  H   LIG     1     -12.703 -31.373  -2.254  1.00  0.00     0.054 H 
HETATM    9  H   LIG     1     -13.252 -31.574  -3.921  1.00  0.00     0.054 H 
HETATM   10  H   LIG     1     -14.980 -28.258  -0.983  1.00  0.00     0.118 H 
ENDROOT
BRANCH   1  11
HETATM   11  N   LIG     1     -13.382 -27.165  -2.977  1.00  0.00    -0.307 N 
HETATM   12  C   LIG     1     -13.089 -26.163  -2.058  1.00  0.00     0.325 C 
HETATM   13  N   LIG     1     -12.911 -24.953  -2.724  1.00  0.00    -0.309 N 
HETATM   14  O   LIG     1     -13.032 -26.343  -0.850  1.00  0.00    -0.247 OA
HETATM   15  H   LIG     1     -12.791 -25.001  -3.724  1.00  0.00     0.170 HD
HETATM   16  H   LIG     1     -13.519 -26.828  -3.915  1.00  0.00     0.170 HD
BRANCH  13  17
HETATM   17  C   LIG     1     -12.659 -23.673  -2.185  1.00  0.00     0.036 A 
HETATM   18  C   LIG     1     -11.388 -23.130  -2.025  1.00  0.00    -0.057 A 
HETATM   19  C   LIG     1     -11.242 -21.813  -1.582  1.00  0.00    -0.080 A 
HETATM   20  H   LIG     1     -10.494 -23.691  -2.275  1.00  0.00     0.086 H 
HETATM   21  C   LIG     1     -12.362 -21.042  -1.264  1.00  0.00    -0.076 A 
HETATM   22  H   LIG     1     -10.247 -21.380  -1.508  1.00  0.00     0.083 H 
HETATM   23  C   LIG     1     -13.650 -21.578  -1.383  1.00  0.00    -0.052 A 
HETATM   24  H   LIG     1     -12.220 -20.015  -0.936  1.00  0.00     0.084 H 
HETATM   25  C   LIG     1     -13.783 -22.897  -1.843  1.00  0.00    -0.051 A 
HETATM   26  H   LIG     1     -14.783 -23.315  -1.936  1.00  0.00     0.087 H 
BRANCH  23  27
HETATM   27  C   LIG     1     -14.874 -20.739  -1.074  1.00  0.00    -0.017 C 
HETATM   28  H   LIG     1     -15.522 -21.307  -0.390  1.00  0.00     0.047 H 
HETATM   29  H   LIG     1     -14.584 -19.843  -0.509  1.00  0.00     0.047 H 
BRANCH  27  30
HETATM   30  C   LIG     1     -15.663 -20.310  -2.295  1.00  0.00    -0.054 A 
HETATM   31  C   LIG     1     -17.063 -20.429  -2.317  1.00  0.00    -0.075 A 
HETATM   32  C   LIG     1     -17.798 -20.041  -3.438  1.00  0.00    -0.060 A 
HETATM   33  H   LIG     1     -17.596 -20.822  -1.454  1.00  0.00     0.084 H 
HETATM   34  C   LIG     1     -17.133 -19.540  -4.558  1.00  0.00     0.074 A 
HETATM   35  H   LIG     1     -18.883 -20.127  -3.424  1.00  0.00     0.085 H 
HETATM   36  C   LIG     1     -15.740 -19.423  -4.562  1.00  0.00    -0.060 A 
HETATM   37  C   LIG     1     -15.009 -19.812  -3.433  1.00  0.00    -0.075 A 
HETATM   38  H   LIG     1     -15.223 -19.030  -5.434  1.00  0.00     0.085 H 
HETATM   39  H   LIG     1     -13.925 -19.723  -3.453  1.00  0.00     0.084 H 
BRANCH  34  40
HETATM   40  S   LIG     1     -18.052 -19.024  -5.979  1.00  0.00     0.239 S 
HETATM   41  O   LIG     1     -17.228 -18.166  -6.776  1.00  0.00    -0.206 OA
HETATM   42  O   LIG     1     -19.402 -18.662  -5.571  1.00  0.00    -0.206 OA
BRANCH  40  43
HETATM   43  N   LIG     1     -18.230 -20.455  -6.839  1.00  0.00    -0.225 NA
HETATM   44  H   LIG     1     -19.221 -20.622  -7.013  1.00  0.00     0.136 HD
HETATM   45  H   LIG     1     -17.765 -21.216  -6.343  1.00  0.00     0.136 HD
ENDBRANCH  40  43
ENDBRANCH  34  40
ENDBRANCH  27  30
ENDBRANCH  23  27
ENDBRANCH  13  17
ENDBRANCH   1  11
BRANCH   2  46
HETATM   46  C   LIG     1     -11.755 -29.303  -4.230  1.00  0.00    -0.027 C 
HETATM   47  H   LIG     1     -11.531 -28.230  -4.269  1.00  0.00     0.042 H 
HETATM   48  H   LIG     1     -11.996 -29.620  -5.251  1.00  0.00     0.042 H 
BRANCH  46  49
HETATM   49  C   LIG     1     -10.489 -30.058  -3.814  1.00  0.00    -0.001 C 
HETATM   50  H   LIG     1     -10.534 -30.352  -2.758  1.00  0.00     0.064 H 
HETATM   51  H   LIG     1      -9.616 -29.406  -3.909  1.00  0.00     0.064 H 
BRANCH  49  52
HETATM   52  N   LIG     1     -10.293 -31.249  -4.625  1.00  0.00    -0.360 N 
HETATM   53  C   LIG     1      -9.537 -31.211  -5.770  1.00  0.00     0.221 C 
HETATM   54  O   LIG     1      -9.076 -30.160  -6.204  1.00  0.00    -0.273 OA
HETATM   55  H   LIG     1     -10.528 -32.155  -4.237  1.00  0.00     0.162 HD
BRANCH  53  56
HETATM   56  C   LIG     1      -9.407 -32.553  -6.500  1.00  0.00     0.024 C 
HETATM   57  C   LIG     1     -10.610 -33.455  -6.178  1.00  0.00    -0.051 C 
HETATM   58  C   LIG     1     -11.889 -33.024  -6.904  1.00  0.00    -0.040 C 
HETATM   59  H   LIG     1     -10.799 -33.466  -5.098  1.00  0.00     0.034 H 
HETATM   60  H   LIG     1     -10.367 -34.488  -6.454  1.00  0.00     0.034 H 
HETATM   61  C   LIG     1     -11.690 -32.845  -8.408  1.00  0.00     0.035 C 
HETATM   62  H   LIG     1     -12.254 -32.082  -6.477  1.00  0.00     0.036 H 
HETATM   63  H   LIG     1     -12.664 -33.778  -6.719  1.00  0.00     0.036 H 
HETATM   64  C   LIG     1     -10.482 -31.964  -8.734  1.00  0.00    -0.040 C 
HETATM   65  H   LIG     1     -12.588 -32.384  -8.837  1.00  0.00     0.082 H 
HETATM   66  C   LIG     1      -9.211 -32.419  -8.017  1.00  0.00    -0.051 C 
HETATM   67  H   LIG     1     -10.698 -30.925  -8.454  1.00  0.00     0.036 H 
HETATM   68  H   LIG     1     -10.296 -31.977  -9.814  1.00  0.00     0.036 H 
HETATM   69  H   LIG     1      -8.400 -31.725  -8.262  1.00  0.00     0.034 H 
HETATM   70  H   LIG     1      -8.899 -33.391  -8.422  1.00  0.00     0.034 H 
HETATM   71  H   LIG     1      -8.509 -33.029  -6.080  1.00  0.00     0.054 H 
BRANCH  61  72
HETATM   72  O   LIG     1     -11.554 -34.121  -9.035  1.00  0.00    -0.396 OA
HETATM   73  H   LIG     1     -10.721 -34.518  -8.731  1.00  0.00     0.210 HD
ENDBRANCH  61  72
ENDBRANCH  53  56
ENDBRANCH  49  52
ENDBRANCH  46  49
ENDBRANCH   2  46
TORSDOF 11
ENDMDL
MODEL 10
REMARK VINA RESULT:      -4.5      5.303      8.340
REMARK  11 active torsions:
REMARK  status: ('A' for Active; 'I' for Inactive)
REMARK    1  A    between atoms: N_1  and  S_2 
REMARK    2  A    between atoms: S_2  and  C_5 
REMARK    3  A    between atoms: C_8  and  C_9 
REMARK    4  A    between atoms: C_9  and  C_10 
REMARK    5  A    between atoms: C_14  and  N_15 
REMARK       I    between atoms: N_15  and  C_16 
REMARK       I    between atoms: C_16  and  N_18 
REMARK    6  A    between atoms: N_18  and  C_19 
REMARK    7  A    between atoms: C_20  and  C_21 
REMARK    8  A    between atoms: C_21  and  C_22 
REMARK    9  A    between atoms: C_22  and  N_23 
REMARK       I    between atoms: N_23  and  C_24 
REMARK   10  A    between atoms: C_24  and  C_26 
REMARK   11  A    between atoms: C_29  and  O_30 
ROOT
HETATM    1  C   LIG     1     -13.818 -28.271  -2.340  1.00  0.00     0.057 C 
HETATM    2  C   LIG     1     -12.726 -29.023  -2.595  1.00  0.00    -0.041 C 
HETATM    3  C   LIG     1     -12.783 -30.527  -2.377  1.00  0.00     0.034 C 
HETATM    4  C   LIG     1     -14.202 -31.050  -2.479  1.00  0.00     0.246 C 
HETATM    5  O   LIG     1     -14.436 -32.098  -3.074  1.00  0.00    -0.271 OA
HETATM    6  N   LIG     1     -15.149 -30.322  -1.806  1.00  0.00    -0.224 NA
HETATM    7  C   LIG     1     -14.956 -29.042  -1.739  1.00  0.00     0.032 C 
HETATM    8  H   LIG     1     -12.348 -30.799  -1.413  1.00  0.00     0.054 H 
HETATM    9  H   LIG     1     -12.243 -31.071  -3.156  1.00  0.00     0.054 H 
HETATM   10  H   LIG     1     -15.662 -28.468  -1.122  1.00  0.00     0.118 H 
ENDROOT
BRANCH   1  11
HETATM   11  N   LIG     1     -13.851 -26.903  -2.535  1.00  0.00    -0.307 N 
HETATM   12  C   LIG     1     -13.974 -25.889  -1.590  1.00  0.00     0.325 C 
HETATM   13  N   LIG     1     -13.997 -24.652  -2.231  1.00  0.00    -0.309 N 
HETATM   14  O   LIG     1     -14.075 -26.087  -0.388  1.00  0.00    -0.247 OA
HETATM   15  H   LIG     1     -13.705 -24.637  -3.196  1.00  0.00     0.170 HD
HETATM   16  H   LIG     1     -13.912 -26.581  -3.486  1.00  0.00     0.170 HD
BRANCH  13  17
HETATM   17  C   LIG     1     -14.165 -23.367  -1.672  1.00  0.00     0.036 A 
HETATM   18  C   LIG     1     -13.197 -22.711  -0.918  1.00  0.00    -0.057 A 
HETATM   19  C   LIG     1     -13.413 -21.397  -0.496  1.00  0.00    -0.080 A 
HETATM   20  H   LIG     1     -12.248 -23.180  -0.678  1.00  0.00     0.086 H 
HETATM   21  C   LIG     1     -14.610 -20.742  -0.793  1.00  0.00    -0.076 A 
HETATM   22  H   LIG     1     -12.629 -20.874   0.049  1.00  0.00     0.083 H 
HETATM   23  C   LIG     1     -15.613 -21.394  -1.520  1.00  0.00    -0.052 A 
HETATM   24  H   LIG     1     -14.745 -19.714  -0.465  1.00  0.00     0.084 H 
HETATM   25  C   LIG     1     -15.378 -22.709  -1.951  1.00  0.00    -0.051 A 
HETATM   26  H   LIG     1     -16.157 -23.217  -2.515  1.00  0.00     0.087 H 
BRANCH  23  27
HETATM   27  C   LIG     1     -16.903 -20.682  -1.879  1.00  0.00    -0.017 C 
HETATM   28  H   LIG     1     -17.722 -21.415  -1.864  1.00  0.00     0.047 H 
HETATM   29  H   LIG     1     -17.161 -19.954  -1.098  1.00  0.00     0.047 H 
BRANCH  27  30
HETATM   30  C   LIG     1     -16.872 -19.970  -3.217  1.00  0.00    -0.054 A 
HETATM   31  C   LIG     1     -15.717 -20.005  -4.017  1.00  0.00    -0.075 A 
HETATM   32  C   LIG     1     -15.677 -19.350  -5.248  1.00  0.00    -0.060 A 
HETATM   33  H   LIG     1     -14.836 -20.551  -3.688  1.00  0.00     0.084 H 
HETATM   34  C   LIG     1     -16.796 -18.639  -5.686  1.00  0.00     0.074 A 
HETATM   35  H   LIG     1     -14.777 -19.407  -5.857  1.00  0.00     0.085 H 
HETATM   36  C   LIG     1     -17.952 -18.582  -4.903  1.00  0.00    -0.060 A 
HETATM   37  C   LIG     1     -17.986 -19.244  -3.669  1.00  0.00    -0.075 A 
HETATM   38  H   LIG     1     -18.823 -18.030  -5.245  1.00  0.00     0.085 H 
HETATM   39  H   LIG     1     -18.889 -19.184  -3.065  1.00  0.00     0.084 H 
BRANCH  34  40
HETATM   40  S   LIG     1     -16.769 -17.821  -7.255  1.00  0.00     0.239 S 
HETATM   41  O   LIG     1     -17.995 -17.101  -7.422  1.00  0.00    -0.206 OA
HETATM   42  O   LIG     1     -16.248 -18.733  -8.262  1.00  0.00    -0.206 OA
BRANCH  40  43
HETATM   43  N   LIG     1     -15.560 -16.673  -7.048  1.00  0.00    -0.225 NA
HETATM   44  H   LIG     1     -14.874 -16.767  -7.796  1.00  0.00     0.136 HD
HETATM   45  H   LIG     1     -15.163 -16.755  -6.112  1.00  0.00     0.136 HD
ENDBRANCH  40  43
ENDBRANCH  34  40
ENDBRANCH  27  30
ENDBRANCH  23  27
ENDBRANCH  13  17
ENDBRANCH   1  11
BRANCH   2  46
HETATM   46  C   LIG     1     -11.394 -28.469  -3.074  1.00  0.00    -0.027 C 
HETATM   47  H   LIG     1     -10.592 -29.032  -2.579  1.00  0.00     0.042 H 
HETATM   48  H   LIG     1     -11.286 -27.421  -2.773  1.00  0.00     0.042 H 
BRANCH  46  49
HETATM   49  C   LIG     1     -11.174 -28.524  -4.589  1.00  0.00    -0.001 C 
HETATM   50  H   LIG     1     -10.799 -27.565  -4.968  1.00  0.00     0.064 H 
HETATM   51  H   LIG     1     -12.127 -28.698  -5.098  1.00  0.00     0.064 H 
BRANCH  49  52
HETATM   52  N   LIG     1     -10.234 -29.572  -4.950  1.00  0.00    -0.360 N 
HETATM   53  C   LIG     1     -10.667 -30.762  -5.479  1.00  0.00     0.221 C 
HETATM   54  O   LIG     1     -11.861 -31.026  -5.583  1.00  0.00    -0.273 OA
HETATM   55  H   LIG     1      -9.248 -29.349  -5.019  1.00  0.00     0.162 HD
BRANCH  53  56
HETATM   56  C   LIG     1      -9.552 -31.755  -5.829  1.00  0.00     0.024 C 
HETATM   57  C   LIG     1      -8.322 -31.513  -4.938  1.00  0.00    -0.051 C 
HETATM   58  C   LIG     1      -8.516 -32.019  -3.504  1.00  0.00    -0.040 C 
HETATM   59  H   LIG     1      -8.078 -30.444  -4.908  1.00  0.00     0.034 H 
HETATM   60  H   LIG     1      -7.453 -32.010  -5.383  1.00  0.00     0.034 H 
HETATM   61  C   LIG     1      -8.995 -33.469  -3.443  1.00  0.00     0.035 C 
HETATM   62  H   LIG     1      -9.242 -31.381  -2.984  1.00  0.00     0.036 H 
HETATM   63  H   LIG     1      -7.564 -31.919  -2.969  1.00  0.00     0.036 H 
HETATM   64  C   LIG     1     -10.207 -33.719  -4.344  1.00  0.00    -0.040 C 
HETATM   65  H   LIG     1      -9.268 -33.713  -2.410  1.00  0.00     0.082 H 
HETATM   66  C   LIG     1      -9.989 -33.225  -5.774  1.00  0.00    -0.051 C 
HETATM   67  H   LIG     1     -11.088 -33.218  -3.923  1.00  0.00     0.036 H 
HETATM   68  H   LIG     1     -10.427 -34.793  -4.376  1.00  0.00     0.036 H 
HETATM   69  H   LIG     1     -10.905 -33.399  -6.350  1.00  0.00     0.034 H 
HETATM   70  H   LIG     1      -9.218 -33.843  -6.254  1.00  0.00     0.034 H 
HETATM   71  H   LIG     1      -9.267 -31.521  -6.864  1.00  0.00     0.054 H 
BRANCH  61  72
HETATM   72  O   LIG     1      -7.926 -34.348  -3.797  1.00  0.00    -0.396 OA
HETATM   73  H   LIG     1      -7.718 -34.206  -4.735  1.00  0.00     0.210 HD
ENDBRANCH  61  72
ENDBRANCH  53  56
ENDBRANCH  49  52
ENDBRANCH  46  49
ENDBRANCH   2  46
TORSDOF 11
ENDMDL
