MODEL 1
REMARK VINA RESULT:      -7.7      0.000      0.000
REMARK  11 active torsions:
REMARK  status: ('A' for Active; 'I' for Inactive)
REMARK    1  A    between atoms: N_1  and  S_2 
REMARK    2  A    between atoms: S_2  and  C_5 
REMARK    3  A    between atoms: C_8  and  C_9 
REMARK    4  A    between atoms: C_9  and  C_10 
REMARK    5  A    between atoms: C_14  and  N_15 
REMARK       I    between atoms: N_15  and  C_16 
REMARK       I    between atoms: C_16  and  N_18 
REMARK    6  A    between atoms: N_18  and  C_19 
REMARK    7  A    between atoms: C_22  and  C_23 
REMARK    8  A    between atoms: C_23  and  C_24 
REMARK    9  A    between atoms: C_24  and  N_25 
REMARK       I    between atoms: N_25  and  C_26 
REMARK   10  A    between atoms: C_26  and  C_28 
REMARK   11  A    between atoms: C_31  and  O_32 
ROOT
HETATM    1  C   LIG     1     -15.511 -27.250  -0.883  1.00  0.00     0.034 A 
HETATM    2  C   LIG     1     -15.381 -26.465   0.255  1.00  0.00    -0.059 A 
HETATM    3  C   LIG     1     -15.660 -25.101   0.179  1.00  0.00    -0.057 A 
HETATM    4  C   LIG     1     -16.078 -24.565  -1.038  1.00  0.00     0.035 A 
HETATM    5  N   LIG     1     -16.224 -25.327  -2.149  1.00  0.00    -0.264 NA
HETATM    6  C   LIG     1     -15.929 -26.641  -2.058  1.00  0.00     0.023 A 
HETATM    7  H   LIG     1     -15.039 -26.901   1.189  1.00  0.00     0.086 H 
HETATM    8  H   LIG     1     -15.542 -24.475   1.056  1.00  0.00     0.086 H 
HETATM    9  H   LIG     1     -16.039 -27.199  -2.984  1.00  0.00     0.117 H 
ENDROOT
BRANCH   1  10
HETATM   10  N   LIG     1     -15.246 -28.631  -0.784  1.00  0.00    -0.209 NA
HETATM   11  C   LIG     1     -13.934 -29.082  -0.893  1.00  0.00     0.303 C 
HETATM   12  N   LIG     1     -13.894 -30.461  -0.818  1.00  0.00    -0.313 N 
HETATM   13  O   LIG     1     -12.973 -28.319  -1.000  1.00  0.00    -0.253 OA
HETATM   14  H   LIG     1     -14.749 -30.908  -0.518  1.00  0.00     0.170 HD
HETATM   15  H   LIG     1     -15.838 -29.177  -1.399  1.00  0.00     0.138 HD
BRANCH  12  16
HETATM   16  C   LIG     1     -12.737 -31.273  -0.803  1.00  0.00     0.036 C 
HETATM   17  C   LIG     1     -12.450 -32.145   0.247  1.00  0.00    -0.057 C 
HETATM   18  C   LIG     1     -11.419 -33.066   0.125  1.00  0.00    -0.080 C 
HETATM   19  H   LIG     1     -13.032 -32.168   1.162  1.00  0.00     0.086 H 
HETATM   20  C   LIG     1     -10.637 -33.082  -1.025  1.00  0.00    -0.076 C 
HETATM   21  H   LIG     1     -11.227 -33.770   0.931  1.00  0.00     0.083 H 
HETATM   22  C   LIG     1     -10.749 -32.075  -1.995  1.00  0.00    -0.052 C 
HETATM   23  H   LIG     1      -9.876 -33.854  -1.114  1.00  0.00     0.084 H 
HETATM   24  C   LIG     1     -11.860 -31.215  -1.903  1.00  0.00    -0.051 C 
HETATM   25  H   LIG     1     -12.043 -30.499  -2.702  1.00  0.00     0.087 H 
BRANCH  22  26
HETATM   26  C   LIG     1      -9.742 -31.938  -3.133  1.00  0.00    -0.017 C 
HETATM   27  H   LIG     1      -9.335 -30.920  -3.077  1.00  0.00     0.047 H 
HETATM   28  H   LIG     1      -8.910 -32.633  -2.957  1.00  0.00     0.047 H 
BRANCH  26  29
HETATM   29  C   LIG     1     -10.228 -32.185  -4.570  1.00  0.00    -0.054 A 
HETATM   30  C   LIG     1     -10.583 -31.155  -5.454  1.00  0.00    -0.075 A 
HETATM   31  C   LIG     1     -10.873 -31.405  -6.797  1.00  0.00    -0.060 A 
HETATM   32  H   LIG     1     -10.611 -30.119  -5.127  1.00  0.00     0.084 H 
HETATM   33  C   LIG     1     -10.931 -32.719  -7.253  1.00  0.00     0.074 A 
HETATM   34  H   LIG     1     -11.037 -30.550  -7.447  1.00  0.00     0.085 H 
HETATM   35  C   LIG     1     -10.692 -33.772  -6.377  1.00  0.00    -0.060 A 
HETATM   36  C   LIG     1     -10.332 -33.503  -5.049  1.00  0.00    -0.075 A 
HETATM   37  H   LIG     1     -10.766 -34.794  -6.731  1.00  0.00     0.085 H 
HETATM   38  H   LIG     1     -10.132 -34.337  -4.381  1.00  0.00     0.084 H 
BRANCH  33  39
HETATM   39  S   LIG     1     -11.324 -33.060  -8.945  1.00  0.00     0.239 S 
HETATM   40  O   LIG     1     -12.269 -34.155  -8.962  1.00  0.00    -0.206 OA
HETATM   41  O   LIG     1     -10.097 -33.109  -9.712  1.00  0.00    -0.206 OA
BRANCH  39  42
HETATM   42  N   LIG     1     -12.122 -31.647  -9.422  1.00  0.00    -0.225 NA
HETATM   43  H   LIG     1     -11.977 -31.374 -10.398  1.00  0.00     0.136 HD
HETATM   44  H   LIG     1     -11.934 -30.878  -8.769  1.00  0.00     0.136 HD
ENDBRANCH  39  42
ENDBRANCH  33  39
ENDBRANCH  26  29
ENDBRANCH  22  26
ENDBRANCH  12  16
ENDBRANCH   1  10
BRANCH   4  45
HETATM   45  C   LIG     1     -16.364 -23.087  -1.151  1.00  0.00    -0.010 C 
HETATM   46  H   LIG     1     -16.664 -22.712  -0.165  1.00  0.00     0.044 H 
HETATM   47  H   LIG     1     -17.215 -22.939  -1.827  1.00  0.00     0.044 H 
BRANCH  45  48
HETATM   48  C   LIG     1     -15.161 -22.283  -1.654  1.00  0.00     0.000 C 
HETATM   49  H   LIG     1     -14.574 -21.901  -0.809  1.00  0.00     0.064 H 
HETATM   50  H   LIG     1     -15.487 -21.421  -2.248  1.00  0.00     0.064 H 
BRANCH  48  51
HETATM   51  N   LIG     1     -14.272 -23.070  -2.490  1.00  0.00    -0.360 N 
HETATM   52  C   LIG     1     -13.486 -22.461  -3.452  1.00  0.00     0.221 C 
HETATM   53  O   LIG     1     -13.502 -21.255  -3.668  1.00  0.00    -0.273 OA
HETATM   54  H   LIG     1     -14.384 -24.075  -2.520  1.00  0.00     0.162 HD
BRANCH  52  55
HETATM   55  C   LIG     1     -12.616 -23.445  -4.234  1.00  0.00     0.024 C 
HETATM   56  C   LIG     1     -11.126 -23.184  -3.994  1.00  0.00    -0.051 C 
HETATM   57  C   LIG     1     -10.612 -23.770  -2.676  1.00  0.00    -0.040 C 
HETATM   58  H   LIG     1     -10.911 -22.108  -4.013  1.00  0.00     0.034 H 
HETATM   59  H   LIG     1     -10.559 -23.629  -4.821  1.00  0.00     0.034 H 
HETATM   60  C   LIG     1     -10.953 -25.250  -2.524  1.00  0.00     0.035 C 
HETATM   61  H   LIG     1     -11.033 -23.208  -1.835  1.00  0.00     0.036 H 
HETATM   62  H   LIG     1      -9.523 -23.639  -2.644  1.00  0.00     0.036 H 
HETATM   63  C   LIG     1     -12.446 -25.507  -2.693  1.00  0.00    -0.040 C 
HETATM   64  H   LIG     1     -10.633 -25.610  -1.540  1.00  0.00     0.082 H 
HETATM   65  C   LIG     1     -13.017 -24.903  -3.976  1.00  0.00    -0.051 C 
HETATM   66  H   LIG     1     -12.983 -25.108  -1.826  1.00  0.00     0.036 H 
HETATM   67  H   LIG     1     -12.632 -26.588  -2.716  1.00  0.00     0.036 H 
HETATM   68  H   LIG     1     -14.110 -24.997  -3.958  1.00  0.00     0.034 H 
HETATM   69  H   LIG     1     -12.670 -25.505  -4.825  1.00  0.00     0.034 H 
HETATM   70  H   LIG     1     -12.823 -23.248  -5.296  1.00  0.00     0.054 H 
BRANCH  60  71
HETATM   71  O   LIG     1     -10.244 -26.003  -3.505  1.00  0.00    -0.396 OA
HETATM   72  H   LIG     1     -10.639 -25.795  -4.369  1.00  0.00     0.210 HD
ENDBRANCH  60  71
ENDBRANCH  52  55
ENDBRANCH  48  51
ENDBRANCH  45  48
ENDBRANCH   4  45
TORSDOF 11
ENDMDL
MODEL 2
REMARK VINA RESULT:      -7.3      6.836      8.614
REMARK  11 active torsions:
REMARK  status: ('A' for Active; 'I' for Inactive)
REMARK    1  A    between atoms: N_1  and  S_2 
REMARK    2  A    between atoms: S_2  and  C_5 
REMARK    3  A    between atoms: C_8  and  C_9 
REMARK    4  A    between atoms: C_9  and  C_10 
REMARK    5  A    between atoms: C_14  and  N_15 
REMARK       I    between atoms: N_15  and  C_16 
REMARK       I    between atoms: C_16  and  N_18 
REMARK    6  A    between atoms: N_18  and  C_19 
REMARK    7  A    between atoms: C_22  and  C_23 
REMARK    8  A    between atoms: C_23  and  C_24 
REMARK    9  A    between atoms: C_24  and  N_25 
REMARK       I    between atoms: N_25  and  C_26 
REMARK   10  A    between atoms: C_26  and  C_28 
REMARK   11  A    between atoms: C_31  and  O_32 
ROOT
HETATM    1  C   LIG     1     -10.646 -32.752  -1.298  1.00  0.00     0.034 A 
HETATM    2  C   LIG     1     -11.086 -32.656   0.016  1.00  0.00    -0.059 A 
HETATM    3  C   LIG     1     -11.798 -31.528   0.417  1.00  0.00    -0.057 A 
HETATM    4  C   LIG     1     -12.064 -30.530  -0.519  1.00  0.00     0.035 A 
HETATM    5  N   LIG     1     -11.654 -30.622  -1.807  1.00  0.00    -0.264 NA
HETATM    6  C   LIG     1     -10.948 -31.715  -2.169  1.00  0.00     0.023 A 
HETATM    7  H   LIG     1     -10.853 -33.439   0.732  1.00  0.00     0.086 H 
HETATM    8  H   LIG     1     -12.127 -31.433   1.446  1.00  0.00     0.086 H 
HETATM    9  H   LIG     1     -10.623 -31.726  -3.206  1.00  0.00     0.117 H 
ENDROOT
BRANCH   1  10
HETATM   10  N   LIG     1      -9.945 -33.909  -1.693  1.00  0.00    -0.209 NA
HETATM   11  C   LIG     1      -8.563 -33.954  -1.543  1.00  0.00     0.303 C 
HETATM   12  N   LIG     1      -8.066 -35.146  -2.030  1.00  0.00    -0.313 N 
HETATM   13  O   LIG     1      -7.921 -33.047  -1.009  1.00  0.00    -0.253 OA
HETATM   14  H   LIG     1      -8.755 -35.856  -2.237  1.00  0.00     0.170 HD
HETATM   15  H   LIG     1     -10.188 -34.199  -2.633  1.00  0.00     0.138 HD
BRANCH  12  16
HETATM   16  C   LIG     1      -6.724 -35.589  -1.974  1.00  0.00     0.036 C 
HETATM   17  C   LIG     1      -5.764 -34.963  -1.179  1.00  0.00    -0.057 C 
HETATM   18  C   LIG     1      -4.520 -35.551  -0.997  1.00  0.00    -0.080 C 
HETATM   19  H   LIG     1      -5.959 -34.036  -0.650  1.00  0.00     0.086 H 
HETATM   20  C   LIG     1      -4.213 -36.740  -1.650  1.00  0.00    -0.076 C 
HETATM   21  H   LIG     1      -3.791 -35.078  -0.343  1.00  0.00     0.083 H 
HETATM   22  C   LIG     1      -5.065 -37.271  -2.630  1.00  0.00    -0.052 C 
HETATM   23  H   LIG     1      -3.253 -37.204  -1.439  1.00  0.00     0.084 H 
HETATM   24  C   LIG     1      -6.356 -36.720  -2.727  1.00  0.00    -0.051 C 
HETATM   25  H   LIG     1      -7.082 -37.184  -3.393  1.00  0.00     0.087 H 
BRANCH  22  26
HETATM   26  C   LIG     1      -4.635 -38.429  -3.526  1.00  0.00    -0.017 C 
HETATM   27  H   LIG     1      -5.096 -38.260  -4.508  1.00  0.00     0.047 H 
HETATM   28  H   LIG     1      -3.546 -38.388  -3.664  1.00  0.00     0.047 H 
BRANCH  26  29
HETATM   29  C   LIG     1      -4.970 -39.860  -3.077  1.00  0.00    -0.054 A 
HETATM   30  C   LIG     1      -4.721 -40.345  -1.784  1.00  0.00    -0.075 A 
HETATM   31  C   LIG     1      -5.176 -41.597  -1.367  1.00  0.00    -0.060 A 
HETATM   32  H   LIG     1      -4.191 -39.742  -1.052  1.00  0.00     0.084 H 
HETATM   33  C   LIG     1      -5.790 -42.445  -2.284  1.00  0.00     0.074 A 
HETATM   34  H   LIG     1      -5.038 -41.863  -0.322  1.00  0.00     0.085 H 
HETATM   35  C   LIG     1      -5.956 -42.040  -3.605  1.00  0.00    -0.060 A 
HETATM   36  C   LIG     1      -5.559 -40.753  -3.992  1.00  0.00    -0.075 A 
HETATM   37  H   LIG     1      -6.410 -42.715  -4.321  1.00  0.00     0.085 H 
HETATM   38  H   LIG     1      -5.710 -40.446  -5.023  1.00  0.00     0.084 H 
BRANCH  33  39
HETATM   39  S   LIG     1      -6.350 -44.048  -1.783  1.00  0.00     0.239 S 
HETATM   40  O   LIG     1      -5.188 -44.902  -1.675  1.00  0.00    -0.206 OA
HETATM   41  O   LIG     1      -7.490 -44.423  -2.592  1.00  0.00    -0.206 OA
BRANCH  39  42
HETATM   42  N   LIG     1      -6.951 -43.750  -0.230  1.00  0.00    -0.225 NA
HETATM   43  H   LIG     1      -7.623 -42.981  -0.164  1.00  0.00     0.136 HD
HETATM   44  H   LIG     1      -6.188 -43.662   0.451  1.00  0.00     0.136 HD
ENDBRANCH  39  42
ENDBRANCH  33  39
ENDBRANCH  26  29
ENDBRANCH  22  26
ENDBRANCH  12  16
ENDBRANCH   1  10
BRANCH   4  45
HETATM   45  C   LIG     1     -12.813 -29.287  -0.103  1.00  0.00    -0.010 C 
HETATM   46  H   LIG     1     -12.394 -28.429  -0.642  1.00  0.00     0.044 H 
HETATM   47  H   LIG     1     -12.645 -29.111   0.967  1.00  0.00     0.044 H 
BRANCH  45  48
HETATM   48  C   LIG     1     -14.316 -29.375  -0.381  1.00  0.00     0.000 C 
HETATM   49  H   LIG     1     -14.790 -30.102   0.291  1.00  0.00     0.064 H 
HETATM   50  H   LIG     1     -14.507 -29.702  -1.410  1.00  0.00     0.064 H 
BRANCH  48  51
HETATM   51  N   LIG     1     -14.994 -28.102  -0.202  1.00  0.00    -0.360 N 
HETATM   52  C   LIG     1     -15.266 -27.290  -1.289  1.00  0.00     0.221 C 
HETATM   53  O   LIG     1     -14.946 -27.574  -2.437  1.00  0.00    -0.273 OA
HETATM   54  H   LIG     1     -15.072 -27.712   0.727  1.00  0.00     0.162 HD
BRANCH  52  55
HETATM   55  C   LIG     1     -15.982 -25.994  -0.910  1.00  0.00     0.024 C 
HETATM   56  C   LIG     1     -15.411 -25.399   0.380  1.00  0.00    -0.051 C 
HETATM   57  C   LIG     1     -14.108 -24.623   0.167  1.00  0.00    -0.040 C 
HETATM   58  H   LIG     1     -15.239 -26.183   1.128  1.00  0.00     0.034 H 
HETATM   59  H   LIG     1     -16.158 -24.719   0.809  1.00  0.00     0.034 H 
HETATM   60  C   LIG     1     -14.231 -23.569  -0.929  1.00  0.00     0.035 C 
HETATM   61  H   LIG     1     -13.302 -25.320  -0.084  1.00  0.00     0.036 H 
HETATM   62  H   LIG     1     -13.839 -24.139   1.114  1.00  0.00     0.036 H 
HETATM   63  C   LIG     1     -14.733 -24.167  -2.238  1.00  0.00    -0.040 C 
HETATM   64  H   LIG     1     -13.261 -23.088  -1.100  1.00  0.00     0.082 H 
HETATM   65  C   LIG     1     -16.011 -24.989  -2.069  1.00  0.00    -0.051 C 
HETATM   66  H   LIG     1     -13.947 -24.792  -2.676  1.00  0.00     0.036 H 
HETATM   67  H   LIG     1     -14.941 -23.363  -2.955  1.00  0.00     0.036 H 
HETATM   68  H   LIG     1     -16.228 -25.507  -3.012  1.00  0.00     0.034 H 
HETATM   69  H   LIG     1     -16.846 -24.299  -1.898  1.00  0.00     0.034 H 
HETATM   70  H   LIG     1     -17.026 -26.276  -0.715  1.00  0.00     0.054 H 
BRANCH  60  71
HETATM   71  O   LIG     1     -15.141 -22.553  -0.511  1.00  0.00    -0.396 OA
HETATM   72  H   LIG     1     -16.040 -22.898  -0.650  1.00  0.00     0.210 HD
ENDBRANCH  60  71
ENDBRANCH  52  55
ENDBRANCH  48  51
ENDBRANCH  45  48
ENDBRANCH   4  45
TORSDOF 11
ENDMDL
MODEL 3
REMARK VINA RESULT:      -7.1      5.420     11.475
REMARK  11 active torsions:
REMARK  status: ('A' for Active; 'I' for Inactive)
REMARK    1  A    between atoms: N_1  and  S_2 
REMARK    2  A    between atoms: S_2  and  C_5 
REMARK    3  A    between atoms: C_8  and  C_9 
REMARK    4  A    between atoms: C_9  and  C_10 
REMARK    5  A    between atoms: C_14  and  N_15 
REMARK       I    between atoms: N_15  and  C_16 
REMARK       I    between atoms: C_16  and  N_18 
REMARK    6  A    between atoms: N_18  and  C_19 
REMARK    7  A    between atoms: C_22  and  C_23 
REMARK    8  A    between atoms: C_23  and  C_24 
REMARK    9  A    between atoms: C_24  and  N_25 
REMARK       I    between atoms: N_25  and  C_26 
REMARK   10  A    between atoms: C_26  and  C_28 
REMARK   11  A    between atoms: C_31  and  O_32 
ROOT
HETATM    1  C   LIG     1     -14.459 -23.795  -1.823  1.00  0.00     0.034 A 
HETATM    2  C   LIG     1     -14.041 -23.871  -0.500  1.00  0.00    -0.059 A 
HETATM    3  C   LIG     1     -14.329 -25.015   0.241  1.00  0.00    -0.057 A 
HETATM    4  C   LIG     1     -15.017 -26.061  -0.372  1.00  0.00     0.035 A 
HETATM    5  N   LIG     1     -15.413 -26.003  -1.666  1.00  0.00    -0.264 NA
HETATM    6  C   LIG     1     -15.142 -24.877  -2.360  1.00  0.00     0.023 A 
HETATM    7  H   LIG     1     -13.520 -23.038  -0.039  1.00  0.00     0.086 H 
HETATM    8  H   LIG     1     -14.026 -25.077   1.281  1.00  0.00     0.086 H 
HETATM    9  H   LIG     1     -15.504 -24.873  -3.384  1.00  0.00     0.117 H 
ENDROOT
BRANCH   1  10
HETATM   10  N   LIG     1     -14.142 -22.639  -2.565  1.00  0.00    -0.209 NA
HETATM   11  C   LIG     1     -14.991 -21.540  -2.512  1.00  0.00     0.303 C 
HETATM   12  N   LIG     1     -14.531 -20.536  -3.341  1.00  0.00    -0.313 N 
HETATM   13  O   LIG     1     -15.983 -21.499  -1.782  1.00  0.00    -0.253 OA
HETATM   14  H   LIG     1     -13.594 -20.660  -3.700  1.00  0.00     0.170 HD
HETATM   15  H   LIG     1     -13.935 -22.855  -3.534  1.00  0.00     0.138 HD
BRANCH  12  16
HETATM   16  C   LIG     1     -15.078 -19.241  -3.486  1.00  0.00     0.036 C 
HETATM   17  C   LIG     1     -14.325 -18.085  -3.288  1.00  0.00    -0.057 C 
HETATM   18  C   LIG     1     -14.844 -16.847  -3.639  1.00  0.00    -0.080 C 
HETATM   19  H   LIG     1     -13.312 -18.108  -2.901  1.00  0.00     0.086 H 
HETATM   20  C   LIG     1     -16.138 -16.755  -4.139  1.00  0.00    -0.076 C 
HETATM   21  H   LIG     1     -14.235 -15.954  -3.520  1.00  0.00     0.083 H 
HETATM   22  C   LIG     1     -16.999 -17.861  -4.135  1.00  0.00    -0.052 C 
HETATM   23  H   LIG     1     -16.493 -15.778  -4.459  1.00  0.00     0.084 H 
HETATM   24  C   LIG     1     -16.428 -19.121  -3.872  1.00  0.00    -0.051 C 
HETATM   25  H   LIG     1     -17.041 -20.013  -3.976  1.00  0.00     0.087 H 
BRANCH  22  26
HETATM   26  C   LIG     1     -18.487 -17.724  -4.447  1.00  0.00    -0.017 C 
HETATM   27  H   LIG     1     -19.032 -18.118  -3.579  1.00  0.00     0.047 H 
HETATM   28  H   LIG     1     -18.735 -16.658  -4.534  1.00  0.00     0.047 H 
BRANCH  26  29
HETATM   29  C   LIG     1     -19.032 -18.410  -5.710  1.00  0.00    -0.054 A 
HETATM   30  C   LIG     1     -18.256 -19.229  -6.543  1.00  0.00    -0.075 A 
HETATM   31  C   LIG     1     -18.819 -19.956  -7.593  1.00  0.00    -0.060 A 
HETATM   32  H   LIG     1     -17.188 -19.349  -6.375  1.00  0.00     0.084 H 
HETATM   33  C   LIG     1     -20.164 -19.780  -7.906  1.00  0.00     0.074 A 
HETATM   34  H   LIG     1     -18.177 -20.649  -8.130  1.00  0.00     0.085 H 
HETATM   35  C   LIG     1     -20.940 -18.892  -7.169  1.00  0.00    -0.060 A 
HETATM   36  C   LIG     1     -20.379 -18.223  -6.073  1.00  0.00    -0.075 A 
HETATM   37  H   LIG     1     -21.980 -18.738  -7.434  1.00  0.00     0.085 H 
HETATM   38  H   LIG     1     -21.003 -17.544  -5.497  1.00  0.00     0.084 H 
BRANCH  33  39
HETATM   39  S   LIG     1     -20.892 -20.672  -9.251  1.00  0.00     0.239 S 
HETATM   40  O   LIG     1     -19.818 -21.113 -10.114  1.00  0.00    -0.206 OA
HETATM   41  O   LIG     1     -22.012 -19.915  -9.766  1.00  0.00    -0.206 OA
BRANCH  39  42
HETATM   42  N   LIG     1     -21.552 -22.022  -8.473  1.00  0.00    -0.225 NA
HETATM   43  H   LIG     1     -21.132 -22.250  -7.568  1.00  0.00     0.136 HD
HETATM   44  H   LIG     1     -21.586 -22.831  -9.103  1.00  0.00     0.136 HD
ENDBRANCH  39  42
ENDBRANCH  33  39
ENDBRANCH  26  29
ENDBRANCH  22  26
ENDBRANCH  12  16
ENDBRANCH   1  10
BRANCH   4  45
HETATM   45  C   LIG     1     -15.361 -27.301   0.418  1.00  0.00    -0.010 C 
HETATM   46  H   LIG     1     -16.072 -27.901  -0.164  1.00  0.00     0.044 H 
HETATM   47  H   LIG     1     -15.870 -27.004   1.343  1.00  0.00     0.044 H 
BRANCH  45  48
HETATM   48  C   LIG     1     -14.135 -28.155   0.754  1.00  0.00     0.000 C 
HETATM   49  H   LIG     1     -14.073 -28.328   1.836  1.00  0.00     0.064 H 
HETATM   50  H   LIG     1     -13.211 -27.652   0.445  1.00  0.00     0.064 H 
BRANCH  48  51
HETATM   51  N   LIG     1     -14.159 -29.451   0.099  1.00  0.00    -0.360 N 
HETATM   52  C   LIG     1     -13.429 -29.671  -1.055  1.00  0.00     0.221 C 
HETATM   53  O   LIG     1     -12.750 -28.807  -1.596  1.00  0.00    -0.273 OA
HETATM   54  H   LIG     1     -14.870 -30.122   0.359  1.00  0.00     0.162 HD
BRANCH  52  55
HETATM   55  C   LIG     1     -13.576 -31.092  -1.602  1.00  0.00     0.024 C 
HETATM   56  C   LIG     1     -14.712 -31.180  -2.625  1.00  0.00    -0.051 C 
HETATM   57  C   LIG     1     -14.316 -30.680  -4.016  1.00  0.00    -0.040 C 
HETATM   58  H   LIG     1     -15.590 -30.618  -2.281  1.00  0.00     0.034 H 
HETATM   59  H   LIG     1     -15.026 -32.228  -2.704  1.00  0.00     0.034 H 
HETATM   60  C   LIG     1     -13.044 -31.344  -4.534  1.00  0.00     0.035 C 
HETATM   61  H   LIG     1     -14.178 -29.593  -3.992  1.00  0.00     0.036 H 
HETATM   62  H   LIG     1     -15.146 -30.888  -4.704  1.00  0.00     0.036 H 
HETATM   63  C   LIG     1     -11.889 -31.200  -3.551  1.00  0.00    -0.040 C 
HETATM   64  H   LIG     1     -12.756 -30.908  -5.497  1.00  0.00     0.082 H 
HETATM   65  C   LIG     1     -12.249 -31.647  -2.134  1.00  0.00    -0.051 C 
HETATM   66  H   LIG     1     -11.554 -30.157  -3.536  1.00  0.00     0.036 H 
HETATM   67  H   LIG     1     -11.039 -31.805  -3.891  1.00  0.00     0.036 H 
HETATM   68  H   LIG     1     -11.428 -31.377  -1.457  1.00  0.00     0.034 H 
HETATM   69  H   LIG     1     -12.311 -32.742  -2.122  1.00  0.00     0.034 H 
HETATM   70  H   LIG     1     -13.852 -31.715  -0.740  1.00  0.00     0.054 H 
BRANCH  60  71
HETATM   71  O   LIG     1     -13.289 -32.732  -4.753  1.00  0.00    -0.396 OA
HETATM   72  H   LIG     1     -14.023 -32.990  -4.169  1.00  0.00     0.210 HD
ENDBRANCH  60  71
ENDBRANCH  52  55
ENDBRANCH  48  51
ENDBRANCH  45  48
ENDBRANCH   4  45
TORSDOF 11
ENDMDL
MODEL 4
REMARK VINA RESULT:      -7.1      3.540     10.297
REMARK  11 active torsions:
REMARK  status: ('A' for Active; 'I' for Inactive)
REMARK    1  A    between atoms: N_1  and  S_2 
REMARK    2  A    between atoms: S_2  and  C_5 
REMARK    3  A    between atoms: C_8  and  C_9 
REMARK    4  A    between atoms: C_9  and  C_10 
REMARK    5  A    between atoms: C_14  and  N_15 
REMARK       I    between atoms: N_15  and  C_16 
REMARK       I    between atoms: C_16  and  N_18 
REMARK    6  A    between atoms: N_18  and  C_19 
REMARK    7  A    between atoms: C_22  and  C_23 
REMARK    8  A    between atoms: C_23  and  C_24 
REMARK    9  A    between atoms: C_24  and  N_25 
REMARK       I    between atoms: N_25  and  C_26 
REMARK   10  A    between atoms: C_26  and  C_28 
REMARK   11  A    between atoms: C_31  and  O_32 
ROOT
HETATM    1  C   LIG     1      -9.369 -32.291  -1.376  1.00  0.00     0.034 A 
HETATM    2  C   LIG     1      -8.083 -31.806  -1.580  1.00  0.00    -0.059 A 
HETATM    3  C   LIG     1      -7.211 -32.510  -2.408  1.00  0.00    -0.057 A 
HETATM    4  C   LIG     1      -7.660 -33.678  -3.023  1.00  0.00     0.035 A 
HETATM    5  N   LIG     1      -8.918 -34.149  -2.845  1.00  0.00    -0.264 NA
HETATM    6  C   LIG     1      -9.739 -33.462  -2.022  1.00  0.00     0.023 A 
HETATM    7  H   LIG     1      -7.750 -30.902  -1.077  1.00  0.00     0.086 H 
HETATM    8  H   LIG     1      -6.198 -32.152  -2.557  1.00  0.00     0.086 H 
HETATM    9  H   LIG     1     -10.726 -33.898  -1.896  1.00  0.00     0.117 H 
ENDROOT
BRANCH   1  10
HETATM   10  N   LIG     1     -10.245 -31.556  -0.553  1.00  0.00    -0.209 NA
HETATM   11  C   LIG     1     -11.299 -30.857  -1.132  1.00  0.00     0.303 C 
HETATM   12  N   LIG     1     -12.006 -30.169  -0.166  1.00  0.00    -0.313 N 
HETATM   13  O   LIG     1     -11.550 -30.908  -2.337  1.00  0.00    -0.253 OA
HETATM   14  H   LIG     1     -11.789 -30.410   0.791  1.00  0.00     0.170 HD
HETATM   15  H   LIG     1      -9.747 -30.943   0.081  1.00  0.00     0.138 HD
BRANCH  12  16
HETATM   16  C   LIG     1     -13.189 -29.419  -0.358  1.00  0.00     0.036 C 
HETATM   17  C   LIG     1     -14.207 -29.835  -1.215  1.00  0.00    -0.057 C 
HETATM   18  C   LIG     1     -15.429 -29.177  -1.217  1.00  0.00    -0.080 C 
HETATM   19  H   LIG     1     -14.103 -30.694  -1.870  1.00  0.00     0.086 H 
HETATM   20  C   LIG     1     -15.620 -28.069  -0.400  1.00  0.00    -0.076 C 
HETATM   21  H   LIG     1     -16.231 -29.533  -1.859  1.00  0.00     0.083 H 
HETATM   22  C   LIG     1     -14.551 -27.488   0.299  1.00  0.00    -0.052 C 
HETATM   23  H   LIG     1     -16.607 -27.613  -0.381  1.00  0.00     0.084 H 
HETATM   24  C   LIG     1     -13.352 -28.222   0.367  1.00  0.00    -0.051 C 
HETATM   25  H   LIG     1     -12.543 -27.859   0.997  1.00  0.00     0.087 H 
BRANCH  22  26
HETATM   26  C   LIG     1     -14.687 -26.139   0.999  1.00  0.00    -0.017 C 
HETATM   27  H   LIG     1     -15.580 -26.198   1.635  1.00  0.00     0.047 H 
HETATM   28  H   LIG     1     -13.823 -25.993   1.660  1.00  0.00     0.047 H 
BRANCH  26  29
HETATM   29  C   LIG     1     -14.798 -24.875   0.131  1.00  0.00    -0.054 A 
HETATM   30  C   LIG     1     -15.972 -24.495  -0.537  1.00  0.00    -0.075 A 
HETATM   31  C   LIG     1     -16.083 -23.266  -1.190  1.00  0.00    -0.060 A 
HETATM   32  H   LIG     1     -16.850 -25.137  -0.538  1.00  0.00     0.084 H 
HETATM   33  C   LIG     1     -14.967 -22.439  -1.291  1.00  0.00     0.074 A 
HETATM   34  H   LIG     1     -17.054 -22.994  -1.596  1.00  0.00     0.085 H 
HETATM   35  C   LIG     1     -13.755 -22.834  -0.734  1.00  0.00    -0.060 A 
HETATM   36  C   LIG     1     -13.678 -24.037  -0.020  1.00  0.00    -0.075 A 
HETATM   37  H   LIG     1     -12.883 -22.199  -0.840  1.00  0.00     0.085 H 
HETATM   38  H   LIG     1     -12.727 -24.324   0.422  1.00  0.00     0.084 H 
BRANCH  33  39
HETATM   39  S   LIG     1     -15.079 -20.889  -2.138  1.00  0.00     0.239 S 
HETATM   40  O   LIG     1     -14.344 -19.914  -1.363  1.00  0.00    -0.206 OA
HETATM   41  O   LIG     1     -16.454 -20.664  -2.527  1.00  0.00    -0.206 OA
BRANCH  39  42
HETATM   42  N   LIG     1     -14.228 -21.198  -3.568  1.00  0.00    -0.225 NA
HETATM   43  H   LIG     1     -13.435 -20.576  -3.744  1.00  0.00     0.136 HD
HETATM   44  H   LIG     1     -14.865 -21.257  -4.371  1.00  0.00     0.136 HD
ENDBRANCH  39  42
ENDBRANCH  33  39
ENDBRANCH  26  29
ENDBRANCH  22  26
ENDBRANCH  12  16
ENDBRANCH   1  10
BRANCH   4  45
HETATM   45  C   LIG     1      -6.726 -34.470  -3.906  1.00  0.00    -0.010 C 
HETATM   46  H   LIG     1      -6.846 -35.536  -3.675  1.00  0.00     0.044 H 
HETATM   47  H   LIG     1      -5.691 -34.201  -3.662  1.00  0.00     0.044 H 
BRANCH  45  48
HETATM   48  C   LIG     1      -6.980 -34.244  -5.399  1.00  0.00     0.000 C 
HETATM   49  H   LIG     1      -6.861 -35.183  -5.955  1.00  0.00     0.064 H 
HETATM   50  H   LIG     1      -6.267 -33.521  -5.812  1.00  0.00     0.064 H 
BRANCH  48  51
HETATM   51  N   LIG     1      -8.313 -33.735  -5.669  1.00  0.00    -0.360 N 
HETATM   52  C   LIG     1      -8.536 -32.865  -6.722  1.00  0.00     0.221 C 
HETATM   53  O   LIG     1      -7.645 -32.464  -7.461  1.00  0.00    -0.273 OA
HETATM   54  H   LIG     1      -9.033 -33.842  -4.967  1.00  0.00     0.162 HD
BRANCH  52  55
HETATM   55  C   LIG     1      -9.997 -32.436  -6.853  1.00  0.00     0.024 C 
HETATM   56  C   LIG     1     -10.113 -31.035  -7.462  1.00  0.00    -0.051 C 
HETATM   57  C   LIG     1      -9.967 -31.022  -8.986  1.00  0.00    -0.040 C 
HETATM   58  H   LIG     1      -9.367 -30.359  -7.027  1.00  0.00     0.034 H 
HETATM   59  H   LIG     1     -11.096 -30.624  -7.199  1.00  0.00     0.034 H 
HETATM   60  C   LIG     1     -10.908 -32.010  -9.670  1.00  0.00     0.035 C 
HETATM   61  H   LIG     1      -8.932 -31.253  -9.258  1.00  0.00     0.036 H 
HETATM   62  H   LIG     1     -10.180 -30.006  -9.341  1.00  0.00     0.036 H 
HETATM   63  C   LIG     1     -10.748 -33.421  -9.116  1.00  0.00    -0.040 C 
HETATM   64  H   LIG     1     -10.722 -32.022 -10.749  1.00  0.00     0.082 H 
HETATM   65  C   LIG     1     -10.843 -33.481  -7.591  1.00  0.00    -0.051 C 
HETATM   66  H   LIG     1      -9.787 -33.832  -9.443  1.00  0.00     0.036 H 
HETATM   67  H   LIG     1     -11.531 -34.069  -9.529  1.00  0.00     0.036 H 
HETATM   68  H   LIG     1     -10.572 -34.490  -7.258  1.00  0.00     0.034 H 
HETATM   69  H   LIG     1     -11.891 -33.332  -7.304  1.00  0.00     0.034 H 
HETATM   70  H   LIG     1     -10.387 -32.388  -5.826  1.00  0.00     0.054 H 
BRANCH  60  71
HETATM   71  O   LIG     1     -12.258 -31.592  -9.476  1.00  0.00    -0.396 OA
HETATM   72  H   LIG     1     -12.675 -32.236  -8.878  1.00  0.00     0.210 HD
ENDBRANCH  60  71
ENDBRANCH  52  55
ENDBRANCH  48  51
ENDBRANCH  45  48
ENDBRANCH   4  45
TORSDOF 11
ENDMDL
MODEL 5
REMARK VINA RESULT:      -6.5      4.511      6.448
REMARK  11 active torsions:
REMARK  status: ('A' for Active; 'I' for Inactive)
REMARK    1  A    between atoms: N_1  and  S_2 
REMARK    2  A    between atoms: S_2  and  C_5 
REMARK    3  A    between atoms: C_8  and  C_9 
REMARK    4  A    between atoms: C_9  and  C_10 
REMARK    5  A    between atoms: C_14  and  N_15 
REMARK       I    between atoms: N_15  and  C_16 
REMARK       I    between atoms: C_16  and  N_18 
REMARK    6  A    between atoms: N_18  and  C_19 
REMARK    7  A    between atoms: C_22  and  C_23 
REMARK    8  A    between atoms: C_23  and  C_24 
REMARK    9  A    between atoms: C_24  and  N_25 
REMARK       I    between atoms: N_25  and  C_26 
REMARK   10  A    between atoms: C_26  and  C_28 
REMARK   11  A    between atoms: C_31  and  O_32 
ROOT
HETATM    1  C   LIG     1     -11.016 -26.018  -3.810  1.00  0.00     0.034 A 
HETATM    2  C   LIG     1     -11.685 -25.496  -4.910  1.00  0.00    -0.059 A 
HETATM    3  C   LIG     1     -12.559 -24.425  -4.732  1.00  0.00    -0.057 A 
HETATM    4  C   LIG     1     -12.726 -23.896  -3.453  1.00  0.00     0.035 A 
HETATM    5  N   LIG     1     -12.064 -24.387  -2.377  1.00  0.00    -0.264 NA
HETATM    6  C   LIG     1     -11.238 -25.438  -2.569  1.00  0.00     0.023 A 
HETATM    7  H   LIG     1     -11.551 -25.934  -5.894  1.00  0.00     0.086 H 
HETATM    8  H   LIG     1     -13.104 -24.024  -5.580  1.00  0.00     0.086 H 
HETATM    9  H   LIG     1     -10.753 -25.807  -1.670  1.00  0.00     0.117 H 
ENDROOT
BRANCH   1  10
HETATM   10  N   LIG     1     -10.119 -27.087  -4.011  1.00  0.00    -0.209 NA
HETATM   11  C   LIG     1     -10.605 -28.390  -4.029  1.00  0.00     0.303 C 
HETATM   12  N   LIG     1      -9.568 -29.287  -4.188  1.00  0.00    -0.313 N 
HETATM   13  O   LIG     1     -11.806 -28.654  -3.949  1.00  0.00    -0.253 OA
HETATM   14  H   LIG     1      -8.677 -28.885  -4.448  1.00  0.00     0.170 HD
HETATM   15  H   LIG     1      -9.322 -27.037  -3.387  1.00  0.00     0.138 HD
BRANCH  12  16
HETATM   16  C   LIG     1      -9.677 -30.688  -4.339  1.00  0.00     0.036 C 
HETATM   17  C   LIG     1      -9.988 -31.286  -5.559  1.00  0.00    -0.057 C 
HETATM   18  C   LIG     1      -9.884 -32.662  -5.707  1.00  0.00    -0.080 C 
HETATM   19  H   LIG     1     -10.275 -30.712  -6.434  1.00  0.00     0.086 H 
HETATM   20  C   LIG     1      -9.520 -33.450  -4.620  1.00  0.00    -0.076 C 
HETATM   21  H   LIG     1     -10.088 -33.118  -6.673  1.00  0.00     0.083 H 
HETATM   22  C   LIG     1      -9.426 -32.909  -3.330  1.00  0.00    -0.052 C 
HETATM   23  H   LIG     1      -9.390 -34.517  -4.785  1.00  0.00     0.084 H 
HETATM   24  C   LIG     1      -9.435 -31.506  -3.218  1.00  0.00    -0.051 C 
HETATM   25  H   LIG     1      -9.247 -31.051  -2.248  1.00  0.00     0.087 H 
BRANCH  22  26
HETATM   26  C   LIG     1      -9.271 -33.794  -2.096  1.00  0.00    -0.017 C 
HETATM   27  H   LIG     1      -9.901 -33.357  -1.310  1.00  0.00     0.047 H 
HETATM   28  H   LIG     1      -9.674 -34.791  -2.321  1.00  0.00     0.047 H 
BRANCH  26  29
HETATM   29  C   LIG     1      -7.861 -34.005  -1.523  1.00  0.00    -0.054 A 
HETATM   30  C   LIG     1      -7.061 -35.118  -1.824  1.00  0.00    -0.075 A 
HETATM   31  C   LIG     1      -5.731 -35.203  -1.409  1.00  0.00    -0.060 A 
HETATM   32  H   LIG     1      -7.446 -35.940  -2.423  1.00  0.00     0.084 H 
HETATM   33  C   LIG     1      -5.209 -34.219  -0.573  1.00  0.00     0.074 A 
HETATM   34  H   LIG     1      -5.142 -36.043  -1.766  1.00  0.00     0.085 H 
HETATM   35  C   LIG     1      -6.008 -33.156  -0.165  1.00  0.00    -0.060 A 
HETATM   36  C   LIG     1      -7.319 -33.047  -0.647  1.00  0.00    -0.075 A 
HETATM   37  H   LIG     1      -5.604 -32.408   0.508  1.00  0.00     0.085 H 
HETATM   38  H   LIG     1      -7.925 -32.202  -0.331  1.00  0.00     0.084 H 
BRANCH  33  39
HETATM   39  S   LIG     1      -3.533 -34.321  -0.013  1.00  0.00     0.239 S 
HETATM   40  O   LIG     1      -2.820 -33.189  -0.562  1.00  0.00    -0.206 OA
HETATM   41  O   LIG     1      -3.057 -35.675  -0.198  1.00  0.00    -0.206 OA
BRANCH  39  42
HETATM   42  N   LIG     1      -3.696 -34.102   1.657  1.00  0.00    -0.225 NA
HETATM   43  H   LIG     1      -2.825 -34.162   2.190  1.00  0.00     0.136 HD
HETATM   44  H   LIG     1      -4.431 -34.708   2.038  1.00  0.00     0.136 HD
ENDBRANCH  39  42
ENDBRANCH  33  39
ENDBRANCH  26  29
ENDBRANCH  22  26
ENDBRANCH  12  16
ENDBRANCH   1  10
BRANCH   4  45
HETATM   45  C   LIG     1     -13.685 -22.752  -3.231  1.00  0.00    -0.010 C 
HETATM   46  H   LIG     1     -14.448 -22.776  -4.018  1.00  0.00     0.044 H 
HETATM   47  H   LIG     1     -13.140 -21.805  -3.337  1.00  0.00     0.044 H 
BRANCH  45  48
HETATM   48  C   LIG     1     -14.368 -22.802  -1.862  1.00  0.00     0.000 C 
HETATM   49  H   LIG     1     -15.080 -21.972  -1.757  1.00  0.00     0.064 H 
HETATM   50  H   LIG     1     -13.634 -22.713  -1.053  1.00  0.00     0.064 H 
BRANCH  48  51
HETATM   51  N   LIG     1     -15.098 -24.039  -1.645  1.00  0.00    -0.360 N 
HETATM   52  C   LIG     1     -14.905 -24.779  -0.493  1.00  0.00     0.221 C 
HETATM   53  O   LIG     1     -14.115 -24.458   0.387  1.00  0.00    -0.273 OA
HETATM   54  H   LIG     1     -15.580 -24.470  -2.423  1.00  0.00     0.162 HD
BRANCH  52  55
HETATM   55  C   LIG     1     -15.755 -26.048  -0.439  1.00  0.00     0.024 C 
HETATM   56  C   LIG     1     -15.839 -26.721  -1.812  1.00  0.00    -0.051 C 
HETATM   57  C   LIG     1     -14.604 -27.557  -2.155  1.00  0.00    -0.040 C 
HETATM   58  H   LIG     1     -15.994 -25.975  -2.602  1.00  0.00     0.034 H 
HETATM   59  H   LIG     1     -16.720 -27.374  -1.824  1.00  0.00     0.034 H 
HETATM   60  C   LIG     1     -14.259 -28.562  -1.059  1.00  0.00     0.035 C 
HETATM   61  H   LIG     1     -13.748 -26.896  -2.329  1.00  0.00     0.036 H 
HETATM   62  H   LIG     1     -14.801 -28.090  -3.094  1.00  0.00     0.036 H 
HETATM   63  C   LIG     1     -14.105 -27.889   0.299  1.00  0.00    -0.040 C 
HETATM   64  H   LIG     1     -13.330 -29.088  -1.310  1.00  0.00     0.082 H 
HETATM   65  C   LIG     1     -15.297 -27.005   0.668  1.00  0.00    -0.051 C 
HETATM   66  H   LIG     1     -13.186 -27.292   0.306  1.00  0.00     0.036 H 
HETATM   67  H   LIG     1     -13.996 -28.653   1.079  1.00  0.00     0.036 H 
HETATM   68  H   LIG     1     -15.054 -26.442   1.578  1.00  0.00     0.034 H 
HETATM   69  H   LIG     1     -16.142 -27.656   0.925  1.00  0.00     0.034 H 
HETATM   70  H   LIG     1     -16.768 -25.717  -0.166  1.00  0.00     0.054 H 
BRANCH  60  71
HETATM   71  O   LIG     1     -15.291 -29.542  -0.971  1.00  0.00    -0.396 OA
HETATM   72  H   LIG     1     -15.012 -30.194  -0.306  1.00  0.00     0.210 HD
ENDBRANCH  60  71
ENDBRANCH  52  55
ENDBRANCH  48  51
ENDBRANCH  45  48
ENDBRANCH   4  45
TORSDOF 11
ENDMDL
MODEL 6
REMARK VINA RESULT:      -5.9      3.620      7.012
REMARK  11 active torsions:
REMARK  status: ('A' for Active; 'I' for Inactive)
REMARK    1  A    between atoms: N_1  and  S_2 
REMARK    2  A    between atoms: S_2  and  C_5 
REMARK    3  A    between atoms: C_8  and  C_9 
REMARK    4  A    between atoms: C_9  and  C_10 
REMARK    5  A    between atoms: C_14  and  N_15 
REMARK       I    between atoms: N_15  and  C_16 
REMARK       I    between atoms: C_16  and  N_18 
REMARK    6  A    between atoms: N_18  and  C_19 
REMARK    7  A    between atoms: C_22  and  C_23 
REMARK    8  A    between atoms: C_23  and  C_24 
REMARK    9  A    between atoms: C_24  and  N_25 
REMARK       I    between atoms: N_25  and  C_26 
REMARK   10  A    between atoms: C_26  and  C_28 
REMARK   11  A    between atoms: C_31  and  O_32 
ROOT
HETATM    1  C   LIG     1      -9.878 -26.523  -6.669  1.00  0.00     0.034 A 
HETATM    2  C   LIG     1     -10.912 -25.842  -7.298  1.00  0.00    -0.059 A 
HETATM    3  C   LIG     1     -10.886 -24.449  -7.340  1.00  0.00    -0.057 A 
HETATM    4  C   LIG     1      -9.810 -23.777  -6.762  1.00  0.00     0.035 A 
HETATM    5  N   LIG     1      -8.787 -24.434  -6.162  1.00  0.00    -0.264 NA
HETATM    6  C   LIG     1      -8.844 -25.782  -6.114  1.00  0.00     0.023 A 
HETATM    7  H   LIG     1     -11.748 -26.386  -7.727  1.00  0.00     0.086 H 
HETATM    8  H   LIG     1     -11.699 -23.906  -7.809  1.00  0.00     0.086 H 
HETATM    9  H   LIG     1      -8.012 -26.256  -5.601  1.00  0.00     0.117 H 
ENDROOT
BRANCH   1  10
HETATM   10  N   LIG     1      -9.909 -27.933  -6.654  1.00  0.00    -0.209 NA
HETATM   11  C   LIG     1     -10.194 -28.595  -5.464  1.00  0.00     0.303 C 
HETATM   12  N   LIG     1     -10.128 -29.962  -5.649  1.00  0.00    -0.313 N 
HETATM   13  O   LIG     1     -10.495 -28.002  -4.427  1.00  0.00    -0.253 OA
HETATM   14  H   LIG     1     -10.076 -30.272  -6.609  1.00  0.00     0.170 HD
HETATM   15  H   LIG     1      -9.077 -28.336  -7.069  1.00  0.00     0.138 HD
BRANCH  12  16
HETATM   16  C   LIG     1     -10.439 -30.959  -4.696  1.00  0.00     0.036 C 
HETATM   17  C   LIG     1      -9.628 -32.075  -4.492  1.00  0.00    -0.057 C 
HETATM   18  C   LIG     1      -9.860 -32.917  -3.413  1.00  0.00    -0.080 C 
HETATM   19  H   LIG     1      -8.778 -32.303  -5.127  1.00  0.00     0.086 H 
HETATM   20  C   LIG     1     -10.936 -32.675  -2.565  1.00  0.00    -0.076 C 
HETATM   21  H   LIG     1      -9.199 -33.761  -3.236  1.00  0.00     0.083 H 
HETATM   22  C   LIG     1     -11.900 -31.704  -2.873  1.00  0.00    -0.052 C 
HETATM   23  H   LIG     1     -11.055 -33.318  -1.696  1.00  0.00     0.084 H 
HETATM   24  C   LIG     1     -11.595 -30.800  -3.908  1.00  0.00    -0.051 C 
HETATM   25  H   LIG     1     -12.265 -29.963  -4.095  1.00  0.00     0.087 H 
BRANCH  22  26
HETATM   26  C   LIG     1     -13.206 -31.592  -2.092  1.00  0.00    -0.017 C 
HETATM   27  H   LIG     1     -14.022 -31.667  -2.824  1.00  0.00     0.047 H 
HETATM   28  H   LIG     1     -13.293 -32.454  -1.417  1.00  0.00     0.047 H 
BRANCH  26  29
HETATM   29  C   LIG     1     -13.439 -30.336  -1.237  1.00  0.00    -0.054 A 
HETATM   30  C   LIG     1     -12.500 -29.837  -0.322  1.00  0.00    -0.075 A 
HETATM   31  C   LIG     1     -12.680 -28.613   0.324  1.00  0.00    -0.060 A 
HETATM   32  H   LIG     1     -11.581 -30.377  -0.112  1.00  0.00     0.084 H 
HETATM   33  C   LIG     1     -13.874 -27.916   0.154  1.00  0.00     0.074 A 
HETATM   34  H   LIG     1     -11.866 -28.240   0.938  1.00  0.00     0.085 H 
HETATM   35  C   LIG     1     -14.874 -28.436  -0.661  1.00  0.00    -0.060 A 
HETATM   36  C   LIG     1     -14.651 -29.631  -1.359  1.00  0.00    -0.075 A 
HETATM   37  H   LIG     1     -15.812 -27.903  -0.768  1.00  0.00     0.085 H 
HETATM   38  H   LIG     1     -15.435 -30.015  -2.005  1.00  0.00     0.084 H 
BRANCH  33  39
HETATM   39  S   LIG     1     -14.134 -26.375   0.985  1.00  0.00     0.239 S 
HETATM   40  O   LIG     1     -15.534 -26.036   0.848  1.00  0.00    -0.206 OA
HETATM   41  O   LIG     1     -13.092 -25.450   0.597  1.00  0.00    -0.206 OA
BRANCH  39  42
HETATM   42  N   LIG     1     -13.830 -26.780   2.600  1.00  0.00    -0.225 NA
HETATM   43  H   LIG     1     -14.506 -27.423   3.021  1.00  0.00     0.136 HD
HETATM   44  H   LIG     1     -13.682 -25.939   3.170  1.00  0.00     0.136 HD
ENDBRANCH  39  42
ENDBRANCH  33  39
ENDBRANCH  26  29
ENDBRANCH  22  26
ENDBRANCH  12  16
ENDBRANCH   1  10
BRANCH   4  45
HETATM   45  C   LIG     1      -9.770 -22.268  -6.774  1.00  0.00    -0.010 C 
HETATM   46  H   LIG     1     -10.587 -21.902  -7.407  1.00  0.00     0.044 H 
HETATM   47  H   LIG     1      -8.830 -21.940  -7.237  1.00  0.00     0.044 H 
BRANCH  45  48
HETATM   48  C   LIG     1      -9.897 -21.656  -5.377  1.00  0.00     0.000 C 
HETATM   49  H   LIG     1     -10.260 -20.622  -5.442  1.00  0.00     0.064 H 
HETATM   50  H   LIG     1      -8.927 -21.635  -4.868  1.00  0.00     0.064 H 
BRANCH  48  51
HETATM   51  N   LIG     1     -10.814 -22.393  -4.524  1.00  0.00    -0.360 N 
HETATM   52  C   LIG     1     -12.110 -21.949  -4.333  1.00  0.00     0.221 C 
HETATM   53  O   LIG     1     -12.551 -20.925  -4.840  1.00  0.00    -0.273 OA
HETATM   54  H   LIG     1     -10.447 -23.102  -3.903  1.00  0.00     0.162 HD
BRANCH  52  55
HETATM   55  C   LIG     1     -12.927 -22.850  -3.406  1.00  0.00     0.024 C 
HETATM   56  C   LIG     1     -12.078 -23.363  -2.239  1.00  0.00    -0.051 C 
HETATM   57  C   LIG     1     -11.915 -22.342  -1.111  1.00  0.00    -0.040 C 
HETATM   58  H   LIG     1     -11.084 -23.671  -2.587  1.00  0.00     0.034 H 
HETATM   59  H   LIG     1     -12.557 -24.263  -1.832  1.00  0.00     0.034 H 
HETATM   60  C   LIG     1     -13.253 -21.787  -0.629  1.00  0.00     0.035 C 
HETATM   61  H   LIG     1     -11.278 -21.518  -1.450  1.00  0.00     0.036 H 
HETATM   62  H   LIG     1     -11.399 -22.832  -0.276  1.00  0.00     0.036 H 
HETATM   63  C   LIG     1     -14.074 -21.211  -1.777  1.00  0.00    -0.040 C 
HETATM   64  H   LIG     1     -13.089 -21.009   0.125  1.00  0.00     0.082 H 
HETATM   65  C   LIG     1     -14.229 -22.180  -2.949  1.00  0.00    -0.051 C 
HETATM   66  H   LIG     1     -13.609 -20.282  -2.124  1.00  0.00     0.036 H 
HETATM   67  H   LIG     1     -15.078 -20.952  -1.417  1.00  0.00     0.036 H 
HETATM   68  H   LIG     1     -14.697 -21.651  -3.788  1.00  0.00     0.034 H 
HETATM   69  H   LIG     1     -14.930 -22.970  -2.653  1.00  0.00     0.034 H 
HETATM   70  H   LIG     1     -13.219 -23.717  -4.015  1.00  0.00     0.054 H 
BRANCH  60  71
HETATM   71  O   LIG     1     -14.002 -22.830  -0.008  1.00  0.00    -0.396 OA
HETATM   72  H   LIG     1     -14.253 -22.515   0.878  1.00  0.00     0.210 HD
ENDBRANCH  60  71
ENDBRANCH  52  55
ENDBRANCH  48  51
ENDBRANCH  45  48
ENDBRANCH   4  45
TORSDOF 11
ENDMDL
MODEL 7
REMARK VINA RESULT:      -5.1      4.083      7.336
REMARK  11 active torsions:
REMARK  status: ('A' for Active; 'I' for Inactive)
REMARK    1  A    between atoms: N_1  and  S_2 
REMARK    2  A    between atoms: S_2  and  C_5 
REMARK    3  A    between atoms: C_8  and  C_9 
REMARK    4  A    between atoms: C_9  and  C_10 
REMARK    5  A    between atoms: C_14  and  N_15 
REMARK       I    between atoms: N_15  and  C_16 
REMARK       I    between atoms: C_16  and  N_18 
REMARK    6  A    between atoms: N_18  and  C_19 
REMARK    7  A    between atoms: C_22  and  C_23 
REMARK    8  A    between atoms: C_23  and  C_24 
REMARK    9  A    between atoms: C_24  and  N_25 
REMARK       I    between atoms: N_25  and  C_26 
REMARK   10  A    between atoms: C_26  and  C_28 
REMARK   11  A    between atoms: C_31  and  O_32 
ROOT
HETATM    1  C   LIG     1      -9.768 -26.642  -6.820  1.00  0.00     0.034 A 
HETATM    2  C   LIG     1     -10.873 -25.864  -7.137  1.00  0.00    -0.059 A 
HETATM    3  C   LIG     1     -10.737 -24.478  -7.202  1.00  0.00    -0.057 A 
HETATM    4  C   LIG     1      -9.486 -23.912  -6.961  1.00  0.00     0.035 A 
HETATM    5  N   LIG     1      -8.398 -24.665  -6.668  1.00  0.00    -0.264 NA
HETATM    6  C   LIG     1      -8.558 -26.003  -6.590  1.00  0.00     0.023 A 
HETATM    7  H   LIG     1     -11.842 -26.326  -7.306  1.00  0.00     0.086 H 
HETATM    8  H   LIG     1     -11.598 -23.859  -7.428  1.00  0.00     0.086 H 
HETATM    9  H   LIG     1      -7.659 -26.555  -6.327  1.00  0.00     0.117 H 
ENDROOT
BRANCH   1  10
HETATM   10  N   LIG     1      -9.918 -28.043  -6.779  1.00  0.00    -0.209 NA
HETATM   11  C   LIG     1     -10.112 -28.673  -5.554  1.00  0.00     0.303 C 
HETATM   12  N   LIG     1     -10.187 -30.041  -5.724  1.00  0.00    -0.313 N 
HETATM   13  O   LIG     1     -10.232 -28.051  -4.497  1.00  0.00    -0.253 OA
HETATM   14  H   LIG     1     -10.280 -30.359  -6.679  1.00  0.00     0.170 HD
HETATM   15  H   LIG     1      -9.181 -28.520  -7.286  1.00  0.00     0.138 HD
BRANCH  12  16
HETATM   16  C   LIG     1     -10.464 -31.003  -4.725  1.00  0.00     0.036 C 
HETATM   17  C   LIG     1      -9.620 -32.084  -4.476  1.00  0.00    -0.057 C 
HETATM   18  C   LIG     1      -9.822 -32.883  -3.359  1.00  0.00    -0.080 C 
HETATM   19  H   LIG     1      -8.767 -32.316  -5.105  1.00  0.00     0.086 H 
HETATM   20  C   LIG     1     -10.901 -32.635  -2.516  1.00  0.00    -0.076 C 
HETATM   21  H   LIG     1      -9.136 -33.699  -3.148  1.00  0.00     0.083 H 
HETATM   22  C   LIG     1     -11.894 -31.707  -2.862  1.00  0.00    -0.052 C 
HETATM   23  H   LIG     1     -10.996 -33.241  -1.619  1.00  0.00     0.084 H 
HETATM   24  C   LIG     1     -11.621 -30.842  -3.938  1.00  0.00    -0.051 C 
HETATM   25  H   LIG     1     -12.315 -30.035  -4.159  1.00  0.00     0.087 H 
BRANCH  22  26
HETATM   26  C   LIG     1     -13.200 -31.598  -2.079  1.00  0.00    -0.017 C 
HETATM   27  H   LIG     1     -14.016 -31.675  -2.810  1.00  0.00     0.047 H 
HETATM   28  H   LIG     1     -13.283 -32.461  -1.404  1.00  0.00     0.047 H 
BRANCH  26  29
HETATM   29  C   LIG     1     -13.434 -30.343  -1.224  1.00  0.00    -0.054 A 
HETATM   30  C   LIG     1     -12.495 -29.841  -0.312  1.00  0.00    -0.075 A 
HETATM   31  C   LIG     1     -12.677 -28.616   0.334  1.00  0.00    -0.060 A 
HETATM   32  H   LIG     1     -11.573 -30.378  -0.103  1.00  0.00     0.084 H 
HETATM   33  C   LIG     1     -13.873 -27.924   0.168  1.00  0.00     0.074 A 
HETATM   34  H   LIG     1     -11.862 -28.241   0.947  1.00  0.00     0.085 H 
HETATM   35  C   LIG     1     -14.873 -28.447  -0.645  1.00  0.00    -0.060 A 
HETATM   36  C   LIG     1     -14.648 -29.641  -1.343  1.00  0.00    -0.075 A 
HETATM   37  H   LIG     1     -15.814 -27.917  -0.749  1.00  0.00     0.085 H 
HETATM   38  H   LIG     1     -15.433 -30.028  -1.987  1.00  0.00     0.084 H 
BRANCH  33  39
HETATM   39  S   LIG     1     -14.136 -26.383   0.999  1.00  0.00     0.239 S 
HETATM   40  O   LIG     1     -15.535 -26.043   0.856  1.00  0.00    -0.206 OA
HETATM   41  O   LIG     1     -13.091 -25.458   0.617  1.00  0.00    -0.206 OA
BRANCH  39  42
HETATM   42  N   LIG     1     -13.840 -26.790   2.614  1.00  0.00    -0.225 NA
HETATM   43  H   LIG     1     -13.591 -26.004   3.221  1.00  0.00     0.136 HD
HETATM   44  H   LIG     1     -13.170 -27.565   2.683  1.00  0.00     0.136 HD
ENDBRANCH  39  42
ENDBRANCH  33  39
ENDBRANCH  26  29
ENDBRANCH  22  26
ENDBRANCH  12  16
ENDBRANCH   1  10
BRANCH   4  45
HETATM   45  C   LIG     1      -9.318 -22.412  -7.002  1.00  0.00    -0.010 C 
HETATM   46  H   LIG     1     -10.302 -21.946  -6.874  1.00  0.00     0.044 H 
HETATM   47  H   LIG     1      -8.949 -22.122  -7.995  1.00  0.00     0.044 H 
BRANCH  45  48
HETATM   48  C   LIG     1      -8.364 -21.888  -5.925  1.00  0.00     0.000 C 
HETATM   49  H   LIG     1      -8.471 -20.801  -5.813  1.00  0.00     0.064 H 
HETATM   50  H   LIG     1      -7.321 -22.092  -6.192  1.00  0.00     0.064 H 
BRANCH  48  51
HETATM   51  N   LIG     1      -8.602 -22.492  -4.626  1.00  0.00    -0.360 N 
HETATM   52  C   LIG     1      -9.310 -21.812  -3.651  1.00  0.00     0.221 C 
HETATM   53  O   LIG     1      -9.753 -20.680  -3.809  1.00  0.00    -0.273 OA
HETATM   54  H   LIG     1      -8.071 -23.310  -4.358  1.00  0.00     0.162 HD
BRANCH  52  55
HETATM   55  C   LIG     1      -9.460 -22.601  -2.350  1.00  0.00     0.024 C 
HETATM   56  C   LIG     1      -8.148 -23.290  -1.962  1.00  0.00    -0.051 C 
HETATM   57  C   LIG     1      -7.148 -22.351  -1.283  1.00  0.00    -0.040 C 
HETATM   58  H   LIG     1      -7.671 -23.742  -2.841  1.00  0.00     0.034 H 
HETATM   59  H   LIG     1      -8.380 -24.113  -1.276  1.00  0.00     0.034 H 
HETATM   60  C   LIG     1      -7.760 -21.605  -0.100  1.00  0.00     0.035 C 
HETATM   61  H   LIG     1      -6.765 -21.630  -2.013  1.00  0.00     0.036 H 
HETATM   62  H   LIG     1      -6.296 -22.950  -0.938  1.00  0.00     0.036 H 
HETATM   63  C   LIG     1      -9.029 -20.860  -0.496  1.00  0.00    -0.040 C 
HETATM   64  H   LIG     1      -7.036 -20.893   0.311  1.00  0.00     0.082 H 
HETATM   65  C   LIG     1     -10.044 -21.746  -1.219  1.00  0.00    -0.051 C 
HETATM   66  H   LIG     1      -8.765 -20.007  -1.131  1.00  0.00     0.036 H 
HETATM   67  H   LIG     1      -9.512 -20.454   0.401  1.00  0.00     0.036 H 
HETATM   68  H   LIG     1     -10.857 -21.116  -1.601  1.00  0.00     0.034 H 
HETATM   69  H   LIG     1     -10.497 -22.422  -0.483  1.00  0.00     0.034 H 
HETATM   70  H   LIG     1     -10.200 -23.386  -2.562  1.00  0.00     0.054 H 
BRANCH  60  71
HETATM   71  O   LIG     1      -8.077 -22.534   0.934  1.00  0.00    -0.396 OA
HETATM   72  H   LIG     1      -7.648 -22.216   1.747  1.00  0.00     0.210 HD
ENDBRANCH  60  71
ENDBRANCH  52  55
ENDBRANCH  48  51
ENDBRANCH  45  48
ENDBRANCH   4  45
TORSDOF 11
ENDMDL
