MODEL 1
REMARK VINA RESULT:      -7.8      0.000      0.000
REMARK  13 active torsions:
REMARK  status: ('A' for Active; 'I' for Inactive)
REMARK    1  A    between atoms: N_1  and  S_2 
REMARK    2  A    between atoms: S_2  and  C_5 
REMARK    3  A    between atoms: C_8  and  C_9 
REMARK    4  A    between atoms: C_9  and  C_10 
REMARK    5  A    between atoms: C_14  and  N_15 
REMARK       I    between atoms: N_15  and  C_16 
REMARK       I    between atoms: C_16  and  N_18 
REMARK    6  A    between atoms: N_18  and  C_19 
REMARK    7  A    between atoms: C_20  and  C_25 
REMARK    8  A    between atoms: C_25  and  C_27 
REMARK    9  A    between atoms: C_25  and  C_38 
REMARK   10  A    between atoms: C_27  and  N_28 
REMARK       I    between atoms: N_28  and  C_29 
REMARK   11  A    between atoms: C_29  and  C_31 
REMARK   12  A    between atoms: C_34  and  O_35 
REMARK   13  A    between atoms: C_38  and  C_39 
ROOT
HETATM    1  C   LIG     1     -11.633  13.689  66.533  1.00  0.00     0.060 A 
HETATM    2  C   LIG     1     -10.582  12.762  66.429  1.00  0.00    -0.023 A 
HETATM    3  C   LIG     1     -10.481  12.063  65.214  1.00  0.00    -0.057 A 
HETATM    4  C   LIG     1     -11.363  12.319  64.180  1.00  0.00     0.002 A 
HETATM    5  N   LIG     1     -12.405  13.159  64.286  1.00  0.00    -0.271 NA
HETATM    6  C   LIG     1     -12.519  13.822  65.455  1.00  0.00     0.028 A 
HETATM    7  H   LIG     1      -9.688  11.345  65.035  1.00  0.00     0.086 H 
HETATM    8  H   LIG     1     -11.233  11.847  63.211  1.00  0.00     0.114 H 
HETATM    9  H   LIG     1     -13.379  14.485  65.508  1.00  0.00     0.118 H 
ENDROOT
BRANCH   2  10
HETATM   10  C   LIG     1      -9.563  12.478  67.542  1.00  0.00    -0.011 C 
HETATM   11  H   LIG     1      -9.826  13.122  68.394  1.00  0.00     0.050 H 
BRANCH  10  12
HETATM   12  C   LIG     1      -9.598  11.011  68.073  1.00  0.00     0.002 C 
HETATM   13  H   LIG     1      -8.574  10.672  68.278  1.00  0.00     0.065 H 
HETATM   14  H   LIG     1     -10.002  10.344  67.300  1.00  0.00     0.065 H 
BRANCH  12  15
HETATM   15  N   LIG     1     -10.360  10.816  69.308  1.00  0.00    -0.360 N 
HETATM   16  C   LIG     1     -10.480   9.588  69.944  1.00  0.00     0.221 C 
HETATM   17  O   LIG     1     -10.063   8.537  69.468  1.00  0.00    -0.273 OA
HETATM   18  H   LIG     1     -10.491  11.629  69.892  1.00  0.00     0.162 HD
BRANCH  16  19
HETATM   19  C   LIG     1     -11.131   9.682  71.339  1.00  0.00     0.024 C 
HETATM   20  C   LIG     1     -12.411  10.542  71.372  1.00  0.00    -0.051 C 
HETATM   21  C   LIG     1     -13.725   9.802  71.096  1.00  0.00    -0.040 C 
HETATM   22  H   LIG     1     -12.343  11.386  70.677  1.00  0.00     0.034 H 
HETATM   23  H   LIG     1     -12.487  10.981  72.375  1.00  0.00     0.034 H 
HETATM   24  C   LIG     1     -13.826   8.482  71.853  1.00  0.00     0.035 C 
HETATM   25  H   LIG     1     -13.836   9.628  70.020  1.00  0.00     0.036 H 
HETATM   26  H   LIG     1     -14.551  10.459  71.403  1.00  0.00     0.036 H 
HETATM   27  C   LIG     1     -12.608   7.609  71.571  1.00  0.00    -0.040 C 
HETATM   28  H   LIG     1     -14.743   7.956  71.567  1.00  0.00     0.082 H 
HETATM   29  C   LIG     1     -11.320   8.308  72.003  1.00  0.00    -0.051 C 
HETATM   30  H   LIG     1     -12.562   7.363  70.504  1.00  0.00     0.036 H 
HETATM   31  H   LIG     1     -12.695   6.664  72.120  1.00  0.00     0.036 H 
HETATM   32  H   LIG     1     -10.464   7.652  71.804  1.00  0.00     0.034 H 
HETATM   33  H   LIG     1     -11.342   8.446  73.093  1.00  0.00     0.034 H 
HETATM   34  H   LIG     1     -10.379  10.207  71.946  1.00  0.00     0.054 H 
BRANCH  24  35
HETATM   35  O   LIG     1     -13.913   8.776  73.247  1.00  0.00    -0.396 OA
HETATM   36  H   LIG     1     -13.009   8.859  73.594  1.00  0.00     0.210 HD
ENDBRANCH  24  35
ENDBRANCH  16  19
ENDBRANCH  12  15
ENDBRANCH  10  12
BRANCH  10  37
HETATM   37  C   LIG     1      -8.115  12.894  67.148  1.00  0.00    -0.053 C 
HETATM   38  H   LIG     1      -7.902  12.642  66.100  1.00  0.00     0.034 H 
HETATM   39  H   LIG     1      -7.385  12.327  67.736  1.00  0.00     0.034 H 
BRANCH  37  40
HETATM   40  C   LIG     1      -7.883  14.367  67.394  1.00  0.00    -0.053 A 
HETATM   41  C   LIG     1      -7.690  14.897  68.788  1.00  0.00    -0.061 A 
HETATM   42  C   LIG     1      -6.523  14.839  67.845  1.00  0.00    -0.061 A 
HETATM   43  H   LIG     1      -7.742  14.190  69.606  1.00  0.00     0.033 H 
HETATM   44  H   LIG     1      -8.089  15.878  69.020  1.00  0.00     0.033 H 
HETATM   45  H   LIG     1      -5.751  14.106  68.050  1.00  0.00     0.033 H 
HETATM   46  H   LIG     1      -6.146  15.754  67.403  1.00  0.00     0.033 H 
HETATM   47  H   LIG     1      -8.453  15.000  66.722  1.00  0.00     0.040 H 
ENDBRANCH  37  40
ENDBRANCH  10  37
ENDBRANCH   2  10
BRANCH   1  48
HETATM   48  N   LIG     1     -11.840  14.448  67.698  1.00  0.00    -0.307 N 
HETATM   49  C   LIG     1     -11.264  15.674  67.963  1.00  0.00     0.325 C 
HETATM   50  N   LIG     1     -10.670  16.269  66.868  1.00  0.00    -0.309 N 
HETATM   51  O   LIG     1     -11.359  16.163  69.085  1.00  0.00    -0.247 OA
HETATM   52  H   LIG     1     -11.007  15.956  65.971  1.00  0.00     0.170 HD
HETATM   53  H   LIG     1     -12.061  13.937  68.551  1.00  0.00     0.170 HD
BRANCH  50  54
HETATM   54  C   LIG     1     -10.078  17.536  66.910  1.00  0.00     0.036 A 
HETATM   55  C   LIG     1     -10.804  18.640  67.349  1.00  0.00    -0.057 A 
HETATM   56  C   LIG     1     -10.200  19.892  67.384  1.00  0.00    -0.080 A 
HETATM   57  H   LIG     1     -11.829  18.526  67.693  1.00  0.00     0.086 H 
HETATM   58  C   LIG     1      -8.877  20.042  66.966  1.00  0.00    -0.076 A 
HETATM   59  H   LIG     1     -10.764  20.753  67.730  1.00  0.00     0.083 H 
HETATM   60  C   LIG     1      -8.121  18.933  66.558  1.00  0.00    -0.052 A 
HETATM   61  H   LIG     1      -8.437  21.035  66.961  1.00  0.00     0.084 H 
HETATM   62  C   LIG     1      -8.731  17.668  66.554  1.00  0.00    -0.051 A 
HETATM   63  H   LIG     1      -8.174  16.800  66.210  1.00  0.00     0.087 H 
BRANCH  60  64
HETATM   64  C   LIG     1      -6.688  19.122  66.112  1.00  0.00    -0.017 C 
HETATM   65  H   LIG     1      -6.371  18.242  65.536  1.00  0.00     0.047 H 
HETATM   66  H   LIG     1      -6.629  19.953  65.397  1.00  0.00     0.047 H 
BRANCH  64  67
HETATM   67  C   LIG     1      -5.707  19.360  67.238  1.00  0.00    -0.054 A 
HETATM   68  C   LIG     1      -4.785  20.414  67.157  1.00  0.00    -0.075 A 
HETATM   69  C   LIG     1      -3.881  20.655  68.196  1.00  0.00    -0.060 A 
HETATM   70  H   LIG     1      -4.770  21.061  66.283  1.00  0.00     0.084 H 
HETATM   71  C   LIG     1      -3.901  19.838  69.327  1.00  0.00     0.074 A 
HETATM   72  H   LIG     1      -3.185  21.487  68.117  1.00  0.00     0.085 H 
HETATM   73  C   LIG     1      -4.806  18.778  69.422  1.00  0.00    -0.060 A 
HETATM   74  C   LIG     1      -5.706  18.541  68.381  1.00  0.00    -0.075 A 
HETATM   75  H   LIG     1      -4.822  18.145  70.307  1.00  0.00     0.085 H 
HETATM   76  H   LIG     1      -6.412  17.719  68.469  1.00  0.00     0.084 H 
BRANCH  71  77
HETATM   77  S   LIG     1      -2.823  20.185  70.683  1.00  0.00     0.239 S 
HETATM   78  O   LIG     1      -2.521  21.616  70.672  1.00  0.00    -0.206 OA
HETATM   79  O   LIG     1      -1.808  19.186  70.770  1.00  0.00    -0.206 OA
BRANCH  77  80
HETATM   80  N   LIG     1      -3.811  19.951  72.024  1.00  0.00    -0.225 NA
HETATM   81  H   LIG     1      -3.238  19.741  72.839  1.00  0.00     0.136 HD
HETATM   82  H   LIG     1      -4.491  19.219  71.807  1.00  0.00     0.136 HD
ENDBRANCH  77  80
ENDBRANCH  71  77
ENDBRANCH  64  67
ENDBRANCH  60  64
ENDBRANCH  50  54
ENDBRANCH   1  48
TORSDOF 13
ENDMDL
MODEL 2
REMARK VINA RESULT:      -7.8      3.712     10.066
REMARK  13 active torsions:
REMARK  status: ('A' for Active; 'I' for Inactive)
REMARK    1  A    between atoms: N_1  and  S_2 
REMARK    2  A    between atoms: S_2  and  C_5 
REMARK    3  A    between atoms: C_8  and  C_9 
REMARK    4  A    between atoms: C_9  and  C_10 
REMARK    5  A    between atoms: C_14  and  N_15 
REMARK       I    between atoms: N_15  and  C_16 
REMARK       I    between atoms: C_16  and  N_18 
REMARK    6  A    between atoms: N_18  and  C_19 
REMARK    7  A    between atoms: C_20  and  C_25 
REMARK    8  A    between atoms: C_25  and  C_27 
REMARK    9  A    between atoms: C_25  and  C_38 
REMARK   10  A    between atoms: C_27  and  N_28 
REMARK       I    between atoms: N_28  and  C_29 
REMARK   11  A    between atoms: C_29  and  C_31 
REMARK   12  A    between atoms: C_34  and  O_35 
REMARK   13  A    between atoms: C_38  and  C_39 
ROOT
HETATM    1  C   LIG     1     -10.189  12.473  65.351  1.00  0.00     0.060 A 
HETATM    2  C   LIG     1     -10.871  13.699  65.267  1.00  0.00    -0.023 A 
HETATM    3  C   LIG     1     -11.819  13.819  64.237  1.00  0.00    -0.057 A 
HETATM    4  C   LIG     1     -12.072  12.757  63.386  1.00  0.00     0.002 A 
HETATM    5  N   LIG     1     -11.388  11.603  63.419  1.00  0.00    -0.271 NA
HETATM    6  C   LIG     1     -10.464  11.486  64.394  1.00  0.00     0.028 A 
HETATM    7  H   LIG     1     -12.410  14.719  64.110  1.00  0.00     0.086 H 
HETATM    8  H   LIG     1     -12.866  12.817  62.648  1.00  0.00     0.114 H 
HETATM    9  H   LIG     1      -9.924  10.542  64.384  1.00  0.00     0.118 H 
ENDROOT
BRANCH   2  10
HETATM   10  C   LIG     1     -10.643  14.885  66.216  1.00  0.00    -0.011 C 
HETATM   11  H   LIG     1      -9.621  14.790  66.612  1.00  0.00     0.050 H 
BRANCH  10  12
HETATM   12  C   LIG     1     -10.715  16.278  65.516  1.00  0.00     0.002 C 
HETATM   13  H   LIG     1     -11.528  16.867  65.959  1.00  0.00     0.065 H 
HETATM   14  H   LIG     1     -10.961  16.149  64.454  1.00  0.00     0.065 H 
BRANCH  12  15
HETATM   15  N   LIG     1      -9.501  17.089  65.623  1.00  0.00    -0.360 N 
HETATM   16  C   LIG     1      -9.445  18.290  66.317  1.00  0.00     0.221 C 
HETATM   17  O   LIG     1     -10.431  18.838  66.799  1.00  0.00    -0.273 OA
HETATM   18  H   LIG     1      -8.621  16.607  65.508  1.00  0.00     0.162 HD
BRANCH  16  19
HETATM   19  C   LIG     1      -8.013  18.837  66.482  1.00  0.00     0.024 C 
HETATM   20  C   LIG     1      -7.879  19.911  67.581  1.00  0.00    -0.051 C 
HETATM   21  C   LIG     1      -7.564  19.395  68.990  1.00  0.00    -0.040 C 
HETATM   22  H   LIG     1      -8.776  20.536  67.640  1.00  0.00     0.034 H 
HETATM   23  H   LIG     1      -7.061  20.582  67.288  1.00  0.00     0.034 H 
HETATM   24  C   LIG     1      -6.465  18.338  68.996  1.00  0.00     0.035 C 
HETATM   25  H   LIG     1      -8.473  18.994  69.452  1.00  0.00     0.036 H 
HETATM   26  H   LIG     1      -7.244  20.252  69.597  1.00  0.00     0.036 H 
HETATM   27  C   LIG     1      -6.806  17.205  68.034  1.00  0.00    -0.040 C 
HETATM   28  H   LIG     1      -6.328  17.947  70.010  1.00  0.00     0.082 H 
HETATM   29  C   LIG     1      -6.959  17.724  66.606  1.00  0.00    -0.051 C 
HETATM   30  H   LIG     1      -7.730  16.708  68.354  1.00  0.00     0.036 H 
HETATM   31  H   LIG     1      -6.009  16.453  68.051  1.00  0.00     0.036 H 
HETATM   32  H   LIG     1      -7.188  16.887  65.936  1.00  0.00     0.034 H 
HETATM   33  H   LIG     1      -5.991  18.119  66.268  1.00  0.00     0.034 H 
HETATM   34  H   LIG     1      -7.809  19.337  65.523  1.00  0.00     0.054 H 
BRANCH  24  35
HETATM   35  O   LIG     1      -5.244  18.966  68.607  1.00  0.00    -0.396 OA
HETATM   36  H   LIG     1      -4.638  18.275  68.288  1.00  0.00     0.210 HD
ENDBRANCH  24  35
ENDBRANCH  16  19
ENDBRANCH  12  15
ENDBRANCH  10  12
BRANCH  10  37
HETATM   37  C   LIG     1     -11.572  14.839  67.465  1.00  0.00    -0.053 C 
HETATM   38  H   LIG     1     -12.169  13.918  67.479  1.00  0.00     0.034 H 
HETATM   39  H   LIG     1     -12.300  15.656  67.424  1.00  0.00     0.034 H 
BRANCH  37  40
HETATM   40  C   LIG     1     -10.777  14.973  68.743  1.00  0.00    -0.053 A 
HETATM   41  C   LIG     1     -10.429  16.326  69.299  1.00  0.00    -0.061 A 
HETATM   42  C   LIG     1     -11.458  15.479  69.990  1.00  0.00    -0.061 A 
HETATM   43  H   LIG     1     -10.752  17.197  68.742  1.00  0.00     0.033 H 
HETATM   44  H   LIG     1      -9.471  16.443  69.794  1.00  0.00     0.033 H 
HETATM   45  H   LIG     1     -12.491  15.802  69.935  1.00  0.00     0.033 H 
HETATM   46  H   LIG     1     -11.207  14.987  70.924  1.00  0.00     0.033 H 
HETATM   47  H   LIG     1     -10.013  14.209  68.844  1.00  0.00     0.040 H 
ENDBRANCH  37  40
ENDBRANCH  10  37
ENDBRANCH   2  10
BRANCH   1  48
HETATM   48  N   LIG     1      -9.215  12.232  66.336  1.00  0.00    -0.307 N 
HETATM   49  C   LIG     1      -9.473  11.798  67.621  1.00  0.00     0.325 C 
HETATM   50  N   LIG     1     -10.757  11.330  67.813  1.00  0.00    -0.309 N 
HETATM   51  O   LIG     1      -8.574  11.800  68.457  1.00  0.00    -0.247 OA
HETATM   52  H   LIG     1     -11.235  11.025  66.980  1.00  0.00     0.170 HD
HETATM   53  H   LIG     1      -8.355  12.774  66.281  1.00  0.00     0.170 HD
BRANCH  50  54
HETATM   54  C   LIG     1     -11.205  10.795  69.027  1.00  0.00     0.036 A 
HETATM   55  C   LIG     1     -11.991  11.558  69.886  1.00  0.00    -0.057 A 
HETATM   56  C   LIG     1     -12.428  11.011  71.088  1.00  0.00    -0.080 A 
HETATM   57  H   LIG     1     -12.291  12.566  69.612  1.00  0.00     0.086 H 
HETATM   58  C   LIG     1     -12.065   9.709  71.436  1.00  0.00    -0.076 A 
HETATM   59  H   LIG     1     -13.044  11.604  71.758  1.00  0.00     0.083 H 
HETATM   60  C   LIG     1     -11.306   8.915  70.563  1.00  0.00    -0.052 A 
HETATM   61  H   LIG     1     -12.381   9.315  72.398  1.00  0.00     0.084 H 
HETATM   62  C   LIG     1     -10.895   9.466  69.339  1.00  0.00    -0.051 A 
HETATM   63  H   LIG     1     -10.278   8.880  68.662  1.00  0.00     0.087 H 
BRANCH  60  64
HETATM   64  C   LIG     1     -10.930   7.506  70.963  1.00  0.00    -0.017 C 
HETATM   65  H   LIG     1     -11.843   6.901  71.050  1.00  0.00     0.047 H 
HETATM   66  H   LIG     1     -10.363   7.030  70.152  1.00  0.00     0.047 H 
BRANCH  64  67
HETATM   67  C   LIG     1     -10.143   7.407  72.250  1.00  0.00    -0.054 A 
HETATM   68  C   LIG     1     -10.598   6.585  73.292  1.00  0.00    -0.075 A 
HETATM   69  C   LIG     1      -9.873   6.474  74.483  1.00  0.00    -0.060 A 
HETATM   70  H   LIG     1     -11.520   6.019  73.179  1.00  0.00     0.084 H 
HETATM   71  C   LIG     1      -8.683   7.186  74.631  1.00  0.00     0.074 A 
HETATM   72  H   LIG     1     -10.238   5.819  75.271  1.00  0.00     0.085 H 
HETATM   73  C   LIG     1      -8.218   8.016  73.608  1.00  0.00    -0.060 A 
HETATM   74  C   LIG     1      -8.946   8.125  72.422  1.00  0.00    -0.075 A 
HETATM   75  H   LIG     1      -7.288   8.566  73.726  1.00  0.00     0.085 H 
HETATM   76  H   LIG     1      -8.571   8.767  71.628  1.00  0.00     0.084 H 
BRANCH  71  77
HETATM   77  S   LIG     1      -7.714   6.986  76.096  1.00  0.00     0.239 S 
HETATM   78  O   LIG     1      -7.142   8.287  76.445  1.00  0.00    -0.206 OA
HETATM   79  O   LIG     1      -6.928   5.801  76.006  1.00  0.00    -0.206 OA
BRANCH  77  80
HETATM   80  N   LIG     1      -8.871   6.680  77.278  1.00  0.00    -0.225 NA
HETATM   81  H   LIG     1      -9.025   5.676  77.354  1.00  0.00     0.136 HD
HETATM   82  H   LIG     1      -9.719   7.205  77.052  1.00  0.00     0.136 HD
ENDBRANCH  77  80
ENDBRANCH  71  77
ENDBRANCH  64  67
ENDBRANCH  60  64
ENDBRANCH  50  54
ENDBRANCH   1  48
TORSDOF 13
ENDMDL
MODEL 3
REMARK VINA RESULT:      -7.8      3.069      6.614
REMARK  13 active torsions:
REMARK  status: ('A' for Active; 'I' for Inactive)
REMARK    1  A    between atoms: N_1  and  S_2 
REMARK    2  A    between atoms: S_2  and  C_5 
REMARK    3  A    between atoms: C_8  and  C_9 
REMARK    4  A    between atoms: C_9  and  C_10 
REMARK    5  A    between atoms: C_14  and  N_15 
REMARK       I    between atoms: N_15  and  C_16 
REMARK       I    between atoms: C_16  and  N_18 
REMARK    6  A    between atoms: N_18  and  C_19 
REMARK    7  A    between atoms: C_20  and  C_25 
REMARK    8  A    between atoms: C_25  and  C_27 
REMARK    9  A    between atoms: C_25  and  C_38 
REMARK   10  A    between atoms: C_27  and  N_28 
REMARK       I    between atoms: N_28  and  C_29 
REMARK   11  A    between atoms: C_29  and  C_31 
REMARK   12  A    between atoms: C_34  and  O_35 
REMARK   13  A    between atoms: C_38  and  C_39 
ROOT
HETATM    1  C   LIG     1     -10.198   8.942  69.806  1.00  0.00     0.060 A 
HETATM    2  C   LIG     1      -9.566   8.540  68.616  1.00  0.00    -0.023 A 
HETATM    3  C   LIG     1      -8.185   8.294  68.694  1.00  0.00    -0.057 A 
HETATM    4  C   LIG     1      -7.515   8.416  69.899  1.00  0.00     0.002 A 
HETATM    5  N   LIG     1      -8.095   8.854  71.027  1.00  0.00    -0.271 NA
HETATM    6  C   LIG     1      -9.417   9.108  70.957  1.00  0.00     0.028 A 
HETATM    7  H   LIG     1      -7.617   7.958  67.834  1.00  0.00     0.086 H 
HETATM    8  H   LIG     1      -6.468   8.140  69.981  1.00  0.00     0.114 H 
HETATM    9  H   LIG     1      -9.850   9.470  71.887  1.00  0.00     0.118 H 
ENDROOT
BRANCH   2  10
HETATM   10  C   LIG     1     -10.283   8.360  67.270  1.00  0.00    -0.011 C 
HETATM   11  H   LIG     1     -11.111   9.083  67.246  1.00  0.00     0.050 H 
BRANCH  10  12
HETATM   12  C   LIG     1      -9.389   8.674  66.030  1.00  0.00     0.002 C 
HETATM   13  H   LIG     1      -9.408   7.820  65.341  1.00  0.00     0.065 H 
HETATM   14  H   LIG     1      -8.346   8.803  66.345  1.00  0.00     0.065 H 
BRANCH  12  15
HETATM   15  N   LIG     1      -9.795   9.847  65.254  1.00  0.00    -0.360 N 
HETATM   16  C   LIG     1      -9.765  11.141  65.756  1.00  0.00     0.221 C 
HETATM   17  O   LIG     1      -9.513  11.406  66.927  1.00  0.00    -0.273 OA
HETATM   18  H   LIG     1      -9.748   9.764  64.249  1.00  0.00     0.162 HD
BRANCH  16  19
HETATM   19  C   LIG     1     -10.014  12.221  64.683  1.00  0.00     0.024 C 
HETATM   20  C   LIG     1     -10.794  11.709  63.455  1.00  0.00    -0.051 C 
HETATM   21  C   LIG     1     -12.322  11.812  63.539  1.00  0.00    -0.040 C 
HETATM   22  H   LIG     1     -10.535  10.671  63.221  1.00  0.00     0.034 H 
HETATM   23  H   LIG     1     -10.474  12.304  62.590  1.00  0.00     0.034 H 
HETATM   24  C   LIG     1     -12.791  13.159  64.075  1.00  0.00     0.035 C 
HETATM   25  H   LIG     1     -12.716  11.001  64.163  1.00  0.00     0.036 H 
HETATM   26  H   LIG     1     -12.724  11.665  62.527  1.00  0.00     0.036 H 
HETATM   27  C   LIG     1     -12.123  13.467  65.410  1.00  0.00    -0.040 C 
HETATM   28  H   LIG     1     -13.881  13.159  64.187  1.00  0.00     0.082 H 
HETATM   29  C   LIG     1     -10.602  13.516  65.265  1.00  0.00    -0.051 C 
HETATM   30  H   LIG     1     -12.405  12.712  66.153  1.00  0.00     0.036 H 
HETATM   31  H   LIG     1     -12.471  14.438  65.783  1.00  0.00     0.036 H 
HETATM   32  H   LIG     1     -10.151  13.754  66.235  1.00  0.00     0.034 H 
HETATM   33  H   LIG     1     -10.338  14.351  64.601  1.00  0.00     0.034 H 
HETATM   34  H   LIG     1      -9.005  12.482  64.332  1.00  0.00     0.054 H 
BRANCH  24  35
HETATM   35  O   LIG     1     -12.458  14.160  63.112  1.00  0.00    -0.396 OA
HETATM   36  H   LIG     1     -11.501  14.114  62.949  1.00  0.00     0.210 HD
ENDBRANCH  24  35
ENDBRANCH  16  19
ENDBRANCH  12  15
ENDBRANCH  10  12
BRANCH  10  37
HETATM   37  C   LIG     1     -10.956   6.962  67.134  1.00  0.00    -0.053 C 
HETATM   38  H   LIG     1     -11.862   7.019  66.516  1.00  0.00     0.034 H 
HETATM   39  H   LIG     1     -11.296   6.610  68.114  1.00  0.00     0.034 H 
BRANCH  37  40
HETATM   40  C   LIG     1      -9.994   5.944  66.570  1.00  0.00    -0.053 A 
HETATM   41  C   LIG     1      -9.810   4.605  67.228  1.00  0.00    -0.061 A 
HETATM   42  C   LIG     1     -10.532   4.696  65.915  1.00  0.00    -0.061 A 
HETATM   43  H   LIG     1     -10.378   4.406  68.129  1.00  0.00     0.033 H 
HETATM   44  H   LIG     1      -8.820   4.162  67.218  1.00  0.00     0.033 H 
HETATM   45  H   LIG     1     -11.601   4.517  65.919  1.00  0.00     0.033 H 
HETATM   46  H   LIG     1     -10.040   4.362  65.009  1.00  0.00     0.033 H 
HETATM   47  H   LIG     1      -9.096   6.396  66.160  1.00  0.00     0.040 H 
ENDBRANCH  37  40
ENDBRANCH  10  37
ENDBRANCH   2  10
BRANCH   1  48
HETATM   48  N   LIG     1     -11.576   9.221  69.855  1.00  0.00    -0.307 N 
HETATM   49  C   LIG     1     -12.129  10.474  70.019  1.00  0.00     0.325 C 
HETATM   50  N   LIG     1     -11.237  11.514  69.848  1.00  0.00    -0.309 N 
HETATM   51  O   LIG     1     -13.332  10.586  70.238  1.00  0.00    -0.247 OA
HETATM   52  H   LIG     1     -10.419  11.296  69.300  1.00  0.00     0.170 HD
HETATM   53  H   LIG     1     -12.186   8.485  70.207  1.00  0.00     0.170 HD
BRANCH  50  54
HETATM   54  C   LIG     1     -11.607  12.862  69.918  1.00  0.00     0.036 A 
HETATM   55  C   LIG     1     -12.331  13.339  71.007  1.00  0.00    -0.057 A 
HETATM   56  C   LIG     1     -12.690  14.682  71.060  1.00  0.00    -0.080 A 
HETATM   57  H   LIG     1     -12.591  12.678  71.830  1.00  0.00     0.086 H 
HETATM   58  C   LIG     1     -12.339  15.541  70.017  1.00  0.00    -0.076 A 
HETATM   59  H   LIG     1     -13.251  15.057  71.911  1.00  0.00     0.083 H 
HETATM   60  C   LIG     1     -11.576  15.083  68.933  1.00  0.00    -0.052 A 
HETATM   61  H   LIG     1     -12.665  16.577  70.058  1.00  0.00     0.084 H 
HETATM   62  C   LIG     1     -11.194  13.732  68.903  1.00  0.00    -0.051 A 
HETATM   63  H   LIG     1     -10.631  13.348  68.055  1.00  0.00     0.087 H 
BRANCH  60  64
HETATM   64  C   LIG     1     -11.206  16.036  67.818  1.00  0.00    -0.017 C 
HETATM   65  H   LIG     1     -11.040  15.463  66.895  1.00  0.00     0.047 H 
HETATM   66  H   LIG     1     -12.062  16.685  67.587  1.00  0.00     0.047 H 
BRANCH  64  67
HETATM   67  C   LIG     1      -9.991  16.890  68.099  1.00  0.00    -0.054 A 
HETATM   68  C   LIG     1     -10.135  18.267  68.326  1.00  0.00    -0.075 A 
HETATM   69  C   LIG     1      -9.023  19.067  68.601  1.00  0.00    -0.060 A 
HETATM   70  H   LIG     1     -11.122  18.725  68.296  1.00  0.00     0.084 H 
HETATM   71  C   LIG     1      -7.755  18.485  68.655  1.00  0.00     0.074 A 
HETATM   72  H   LIG     1      -9.161  20.129  68.788  1.00  0.00     0.085 H 
HETATM   73  C   LIG     1      -7.590  17.117  68.423  1.00  0.00    -0.060 A 
HETATM   74  C   LIG     1      -8.705  16.324  68.148  1.00  0.00    -0.075 A 
HETATM   75  H   LIG     1      -6.601  16.667  68.469  1.00  0.00     0.085 H 
HETATM   76  H   LIG     1      -8.567  15.258  67.978  1.00  0.00     0.084 H 
BRANCH  71  77
HETATM   77  S   LIG     1      -6.352  19.469  69.086  1.00  0.00     0.239 S 
HETATM   78  O   LIG     1      -5.145  18.723  68.732  1.00  0.00    -0.206 OA
HETATM   79  O   LIG     1      -6.542  20.057  70.371  1.00  0.00    -0.206 OA
BRANCH  77  80
HETATM   80  N   LIG     1      -6.426  20.740  67.986  1.00  0.00    -0.225 NA
HETATM   81  H   LIG     1      -5.591  20.737  67.404  1.00  0.00     0.136 HD
HETATM   82  H   LIG     1      -6.559  21.613  68.501  1.00  0.00     0.136 HD
ENDBRANCH  77  80
ENDBRANCH  71  77
ENDBRANCH  64  67
ENDBRANCH  60  64
ENDBRANCH  50  54
ENDBRANCH   1  48
TORSDOF 13
ENDMDL
MODEL 4
REMARK VINA RESULT:      -7.4      3.942      8.529
REMARK  13 active torsions:
REMARK  status: ('A' for Active; 'I' for Inactive)
REMARK    1  A    between atoms: N_1  and  S_2 
REMARK    2  A    between atoms: S_2  and  C_5 
REMARK    3  A    between atoms: C_8  and  C_9 
REMARK    4  A    between atoms: C_9  and  C_10 
REMARK    5  A    between atoms: C_14  and  N_15 
REMARK       I    between atoms: N_15  and  C_16 
REMARK       I    between atoms: C_16  and  N_18 
REMARK    6  A    between atoms: N_18  and  C_19 
REMARK    7  A    between atoms: C_20  and  C_25 
REMARK    8  A    between atoms: C_25  and  C_27 
REMARK    9  A    between atoms: C_25  and  C_38 
REMARK   10  A    between atoms: C_27  and  N_28 
REMARK       I    between atoms: N_28  and  C_29 
REMARK   11  A    between atoms: C_29  and  C_31 
REMARK   12  A    between atoms: C_34  and  O_35 
REMARK   13  A    between atoms: C_38  and  C_39 
ROOT
HETATM    1  C   LIG     1      -7.076  19.995  66.222  1.00  0.00     0.060 A 
HETATM    2  C   LIG     1      -6.052  19.491  67.041  1.00  0.00    -0.023 A 
HETATM    3  C   LIG     1      -4.865  19.107  66.394  1.00  0.00    -0.057 A 
HETATM    4  C   LIG     1      -4.728  19.260  65.026  1.00  0.00     0.002 A 
HETATM    5  N   LIG     1      -5.717  19.686  64.226  1.00  0.00    -0.271 NA
HETATM    6  C   LIG     1      -6.866  20.041  64.837  1.00  0.00     0.028 A 
HETATM    7  H   LIG     1      -4.012  18.728  66.947  1.00  0.00     0.086 H 
HETATM    8  H   LIG     1      -3.781  19.049  64.537  1.00  0.00     0.114 H 
HETATM    9  H   LIG     1      -7.648  20.371  64.157  1.00  0.00     0.118 H 
ENDROOT
BRANCH   2  10
HETATM   10  C   LIG     1      -6.155  19.339  68.566  1.00  0.00    -0.011 C 
HETATM   11  H   LIG     1      -7.222  19.232  68.809  1.00  0.00     0.050 H 
BRANCH  10  12
HETATM   12  C   LIG     1      -5.446  18.067  69.125  1.00  0.00     0.002 C 
HETATM   13  H   LIG     1      -4.927  18.318  70.059  1.00  0.00     0.065 H 
HETATM   14  H   LIG     1      -4.679  17.726  68.419  1.00  0.00     0.065 H 
BRANCH  12  15
HETATM   15  N   LIG     1      -6.336  16.944  69.429  1.00  0.00    -0.360 N 
HETATM   16  C   LIG     1      -6.543  15.879  68.564  1.00  0.00     0.221 C 
HETATM   17  O   LIG     1      -6.096  15.840  67.422  1.00  0.00    -0.273 OA
HETATM   18  H   LIG     1      -6.514  16.759  70.406  1.00  0.00     0.162 HD
BRANCH  16  19
HETATM   19  C   LIG     1      -7.334  14.717  69.200  1.00  0.00     0.024 C 
HETATM   20  C   LIG     1      -8.208  13.937  68.197  1.00  0.00    -0.051 C 
HETATM   21  C   LIG     1      -7.534  12.751  67.498  1.00  0.00    -0.040 C 
HETATM   22  H   LIG     1      -8.618  14.598  67.425  1.00  0.00     0.034 H 
HETATM   23  H   LIG     1      -9.072  13.544  68.748  1.00  0.00     0.034 H 
HETATM   24  C   LIG     1      -6.738  11.877  68.462  1.00  0.00     0.035 C 
HETATM   25  H   LIG     1      -6.883  13.112  66.694  1.00  0.00     0.036 H 
HETATM   26  H   LIG     1      -8.321  12.146  67.029  1.00  0.00     0.036 H 
HETATM   27  C   LIG     1      -5.740  12.720  69.250  1.00  0.00    -0.040 C 
HETATM   28  H   LIG     1      -6.215  11.090  67.909  1.00  0.00     0.082 H 
HETATM   29  C   LIG     1      -6.454  13.799  70.063  1.00  0.00    -0.051 C 
HETATM   30  H   LIG     1      -5.019  13.182  68.566  1.00  0.00     0.036 H 
HETATM   31  H   LIG     1      -5.175  12.079  69.937  1.00  0.00     0.036 H 
HETATM   32  H   LIG     1      -5.715  14.377  70.630  1.00  0.00     0.034 H 
HETATM   33  H   LIG     1      -7.090  13.310  70.815  1.00  0.00     0.034 H 
HETATM   34  H   LIG     1      -8.021  15.217  69.898  1.00  0.00     0.054 H 
BRANCH  24  35
HETATM   35  O   LIG     1      -7.659  11.243  69.349  1.00  0.00    -0.396 OA
HETATM   36  H   LIG     1      -7.187  10.531  69.814  1.00  0.00     0.210 HD
ENDBRANCH  24  35
ENDBRANCH  16  19
ENDBRANCH  12  15
ENDBRANCH  10  12
BRANCH  10  37
HETATM   37  C   LIG     1      -5.690  20.617  69.326  1.00  0.00    -0.053 C 
HETATM   38  H   LIG     1      -6.536  21.113  69.819  1.00  0.00     0.034 H 
HETATM   39  H   LIG     1      -5.294  21.354  68.619  1.00  0.00     0.034 H 
BRANCH  37  40
HETATM   40  C   LIG     1      -4.609  20.293  70.330  1.00  0.00    -0.053 A 
HETATM   41  C   LIG     1      -3.840  21.386  71.020  1.00  0.00    -0.061 A 
HETATM   42  C   LIG     1      -4.843  20.580  71.792  1.00  0.00    -0.061 A 
HETATM   43  H   LIG     1      -4.077  22.409  70.757  1.00  0.00     0.033 H 
HETATM   44  H   LIG     1      -2.793  21.213  71.239  1.00  0.00     0.033 H 
HETATM   45  H   LIG     1      -5.759  21.076  72.093  1.00  0.00     0.033 H 
HETATM   46  H   LIG     1      -4.500  19.836  72.503  1.00  0.00     0.033 H 
HETATM   47  H   LIG     1      -4.037  19.410  70.062  1.00  0.00     0.040 H 
ENDBRANCH  37  40
ENDBRANCH  10  37
ENDBRANCH   2  10
BRANCH   1  48
HETATM   48  N   LIG     1      -8.312  20.409  66.751  1.00  0.00    -0.307 N 
HETATM   49  C   LIG     1      -9.345  19.569  67.112  1.00  0.00     0.325 C 
HETATM   50  N   LIG     1      -8.991  18.237  67.192  1.00  0.00    -0.309 N 
HETATM   51  O   LIG     1     -10.447  20.038  67.383  1.00  0.00    -0.247 OA
HETATM   52  H   LIG     1      -8.008  18.059  67.332  1.00  0.00     0.170 HD
HETATM   53  H   LIG     1      -8.647  21.332  66.479  1.00  0.00     0.170 HD
BRANCH  50  54
HETATM   54  C   LIG     1      -9.875  17.230  67.594  1.00  0.00     0.036 A 
HETATM   55  C   LIG     1     -10.254  17.115  68.929  1.00  0.00    -0.057 A 
HETATM   56  C   LIG     1     -11.134  16.108  69.311  1.00  0.00    -0.080 A 
HETATM   57  H   LIG     1      -9.892  17.824  69.669  1.00  0.00     0.086 H 
HETATM   58  C   LIG     1     -11.620  15.208  68.362  1.00  0.00    -0.076 A 
HETATM   59  H   LIG     1     -11.433  16.020  70.351  1.00  0.00     0.083 H 
HETATM   60  C   LIG     1     -11.278  15.334  67.007  1.00  0.00    -0.052 A 
HETATM   61  H   LIG     1     -12.273  14.402  68.688  1.00  0.00     0.084 H 
HETATM   62  C   LIG     1     -10.413  16.372  66.627  1.00  0.00    -0.051 A 
HETATM   63  H   LIG     1     -10.108  16.469  65.588  1.00  0.00     0.087 H 
BRANCH  60  64
HETATM   64  C   LIG     1     -11.822  14.347  65.998  1.00  0.00    -0.017 C 
HETATM   65  H   LIG     1     -12.920  14.343  66.055  1.00  0.00     0.047 H 
HETATM   66  H   LIG     1     -11.602  14.699  64.981  1.00  0.00     0.047 H 
BRANCH  64  67
HETATM   67  C   LIG     1     -11.309  12.935  66.162  1.00  0.00    -0.054 A 
HETATM   68  C   LIG     1     -10.550  12.339  65.143  1.00  0.00    -0.075 A 
HETATM   69  C   LIG     1     -10.058  11.038  65.286  1.00  0.00    -0.060 A 
HETATM   70  H   LIG     1     -10.332  12.890  64.231  1.00  0.00     0.084 H 
HETATM   71  C   LIG     1     -10.322  10.329  66.459  1.00  0.00     0.074 A 
HETATM   72  H   LIG     1      -9.460  10.603  64.489  1.00  0.00     0.085 H 
HETATM   73  C   LIG     1     -11.083  10.902  67.481  1.00  0.00    -0.060 A 
HETATM   74  C   LIG     1     -11.573  12.201  67.332  1.00  0.00    -0.075 A 
HETATM   75  H   LIG     1     -11.283  10.348  68.394  1.00  0.00     0.085 H 
HETATM   76  H   LIG     1     -12.157  12.641  68.137  1.00  0.00     0.084 H 
BRANCH  71  77
HETATM   77  S   LIG     1      -9.633   8.718  66.687  1.00  0.00     0.239 S 
HETATM   78  O   LIG     1     -10.733   7.777  66.898  1.00  0.00    -0.206 OA
HETATM   79  O   LIG     1      -8.503   8.786  67.554  1.00  0.00    -0.206 OA
BRANCH  77  80
HETATM   80  N   LIG     1      -9.019   8.347  65.165  1.00  0.00    -0.225 NA
HETATM   81  H   LIG     1      -9.396   8.996  64.477  1.00  0.00     0.136 HD
HETATM   82  H   LIG     1      -9.227   7.368  64.956  1.00  0.00     0.136 HD
ENDBRANCH  77  80
ENDBRANCH  71  77
ENDBRANCH  64  67
ENDBRANCH  60  64
ENDBRANCH  50  54
ENDBRANCH   1  48
TORSDOF 13
ENDMDL
MODEL 5
REMARK VINA RESULT:      -7.0      3.485     10.535
REMARK  13 active torsions:
REMARK  status: ('A' for Active; 'I' for Inactive)
REMARK    1  A    between atoms: N_1  and  S_2 
REMARK    2  A    between atoms: S_2  and  C_5 
REMARK    3  A    between atoms: C_8  and  C_9 
REMARK    4  A    between atoms: C_9  and  C_10 
REMARK    5  A    between atoms: C_14  and  N_15 
REMARK       I    between atoms: N_15  and  C_16 
REMARK       I    between atoms: C_16  and  N_18 
REMARK    6  A    between atoms: N_18  and  C_19 
REMARK    7  A    between atoms: C_20  and  C_25 
REMARK    8  A    between atoms: C_25  and  C_27 
REMARK    9  A    between atoms: C_25  and  C_38 
REMARK   10  A    between atoms: C_27  and  N_28 
REMARK       I    between atoms: N_28  and  C_29 
REMARK   11  A    between atoms: C_29  and  C_31 
REMARK   12  A    between atoms: C_34  and  O_35 
REMARK   13  A    between atoms: C_38  and  C_39 
ROOT
HETATM    1  C   LIG     1      -8.798  12.596  66.955  1.00  0.00     0.060 A 
HETATM    2  C   LIG     1      -7.926  13.569  67.472  1.00  0.00    -0.023 A 
HETATM    3  C   LIG     1      -6.601  13.162  67.705  1.00  0.00    -0.057 A 
HETATM    4  C   LIG     1      -6.196  11.874  67.400  1.00  0.00     0.002 A 
HETATM    5  N   LIG     1      -7.032  10.921  66.960  1.00  0.00    -0.271 NA
HETATM    6  C   LIG     1      -8.309  11.298  66.749  1.00  0.00     0.028 A 
HETATM    7  H   LIG     1      -5.852  13.850  68.081  1.00  0.00     0.086 H 
HETATM    8  H   LIG     1      -5.154  11.585  67.495  1.00  0.00     0.114 H 
HETATM    9  H   LIG     1      -8.958  10.497  66.403  1.00  0.00     0.118 H 
ENDROOT
BRANCH   2  10
HETATM   10  C   LIG     1      -8.330  15.016  67.789  1.00  0.00    -0.011 C 
HETATM   11  H   LIG     1      -9.392  15.000  68.077  1.00  0.00     0.050 H 
BRANCH  10  12
HETATM   12  C   LIG     1      -7.558  15.640  68.992  1.00  0.00     0.002 C 
HETATM   13  H   LIG     1      -6.503  15.342  68.944  1.00  0.00     0.065 H 
HETATM   14  H   LIG     1      -7.955  15.245  69.936  1.00  0.00     0.065 H 
BRANCH  12  15
HETATM   15  N   LIG     1      -7.577  17.103  69.050  1.00  0.00    -0.360 N 
HETATM   16  C   LIG     1      -6.451  17.871  69.310  1.00  0.00     0.221 C 
HETATM   17  O   LIG     1      -5.368  17.394  69.633  1.00  0.00    -0.273 OA
HETATM   18  H   LIG     1      -8.319  17.567  68.544  1.00  0.00     0.162 HD
BRANCH  16  19
HETATM   19  C   LIG     1      -6.673  19.381  69.089  1.00  0.00     0.024 C 
HETATM   20  C   LIG     1      -5.367  20.191  68.956  1.00  0.00    -0.051 C 
HETATM   21  C   LIG     1      -4.805  20.332  67.537  1.00  0.00    -0.040 C 
HETATM   22  H   LIG     1      -4.577  19.782  69.596  1.00  0.00     0.034 H 
HETATM   23  H   LIG     1      -5.567  21.203  69.331  1.00  0.00     0.034 H 
HETATM   24  C   LIG     1      -5.878  20.684  66.513  1.00  0.00     0.035 C 
HETATM   25  H   LIG     1      -4.295  19.406  67.244  1.00  0.00     0.036 H 
HETATM   26  H   LIG     1      -4.047  21.126  67.553  1.00  0.00     0.036 H 
HETATM   27  C   LIG     1      -7.028  19.684  66.576  1.00  0.00    -0.040 C 
HETATM   28  H   LIG     1      -5.445  20.700  65.507  1.00  0.00     0.082 H 
HETATM   29  C   LIG     1      -7.675  19.678  67.961  1.00  0.00    -0.051 C 
HETATM   30  H   LIG     1      -6.666  18.680  66.327  1.00  0.00     0.036 H 
HETATM   31  H   LIG     1      -7.791  19.949  65.835  1.00  0.00     0.036 H 
HETATM   32  H   LIG     1      -8.506  18.964  67.972  1.00  0.00     0.034 H 
HETATM   33  H   LIG     1      -8.126  20.664  68.144  1.00  0.00     0.034 H 
HETATM   34  H   LIG     1      -7.160  19.715  70.017  1.00  0.00     0.054 H 
BRANCH  24  35
HETATM   35  O   LIG     1      -6.350  22.000  66.800  1.00  0.00    -0.396 OA
HETATM   36  H   LIG     1      -6.003  22.600  66.118  1.00  0.00     0.210 HD
ENDBRANCH  24  35
ENDBRANCH  16  19
ENDBRANCH  12  15
ENDBRANCH  10  12
BRANCH  10  37
HETATM   37  C   LIG     1      -8.261  15.943  66.539  1.00  0.00    -0.053 C 
HETATM   38  H   LIG     1      -7.684  15.474  65.731  1.00  0.00     0.034 H 
HETATM   39  H   LIG     1      -7.721  16.865  66.782  1.00  0.00     0.034 H 
BRANCH  37  40
HETATM   40  C   LIG     1      -9.643  16.315  66.056  1.00  0.00    -0.053 A 
HETATM   41  C   LIG     1     -10.788  16.453  67.020  1.00  0.00    -0.061 A 
HETATM   42  C   LIG     1     -10.202  17.678  66.382  1.00  0.00    -0.061 A 
HETATM   43  H   LIG     1     -10.590  16.258  68.067  1.00  0.00     0.033 H 
HETATM   44  H   LIG     1     -11.774  16.147  66.689  1.00  0.00     0.033 H 
HETATM   45  H   LIG     1      -9.629  18.346  67.015  1.00  0.00     0.033 H 
HETATM   46  H   LIG     1     -10.750  18.188  65.598  1.00  0.00     0.033 H 
HETATM   47  H   LIG     1      -9.885  15.874  65.095  1.00  0.00     0.040 H 
ENDBRANCH  37  40
ENDBRANCH  10  37
ENDBRANCH   2  10
BRANCH   1  48
HETATM   48  N   LIG     1     -10.148  12.880  66.682  1.00  0.00    -0.307 N 
HETATM   49  C   LIG     1     -11.192  12.709  67.568  1.00  0.00     0.325 C 
HETATM   50  N   LIG     1     -10.798  12.500  68.874  1.00  0.00    -0.309 N 
HETATM   51  O   LIG     1     -12.350  12.806  67.173  1.00  0.00    -0.247 OA
HETATM   52  H   LIG     1      -9.875  12.835  69.106  1.00  0.00     0.170 HD
HETATM   53  H   LIG     1     -10.452  12.801  65.713  1.00  0.00     0.170 HD
BRANCH  50  54
HETATM   54  C   LIG     1     -11.700  12.359  69.936  1.00  0.00     0.036 A 
HETATM   55  C   LIG     1     -12.209  13.482  70.582  1.00  0.00    -0.057 A 
HETATM   56  C   LIG     1     -13.104  13.323  71.635  1.00  0.00    -0.080 A 
HETATM   57  H   LIG     1     -11.938  14.481  70.251  1.00  0.00     0.086 H 
HETATM   58  C   LIG     1     -13.475  12.043  72.050  1.00  0.00    -0.076 A 
HETATM   59  H   LIG     1     -13.506  14.197  72.138  1.00  0.00     0.083 H 
HETATM   60  C   LIG     1     -12.999  10.904  71.384  1.00  0.00    -0.052 A 
HETATM   61  H   LIG     1     -14.142  11.939  72.901  1.00  0.00     0.084 H 
HETATM   62  C   LIG     1     -12.120  11.075  70.303  1.00  0.00    -0.051 A 
HETATM   63  H   LIG     1     -11.713  10.205  69.793  1.00  0.00     0.087 H 
BRANCH  60  64
HETATM   64  C   LIG     1     -13.420   9.528  71.851  1.00  0.00    -0.017 C 
HETATM   65  H   LIG     1     -13.725   9.584  72.906  1.00  0.00     0.047 H 
HETATM   66  H   LIG     1     -14.330   9.218  71.319  1.00  0.00     0.047 H 
BRANCH  64  67
HETATM   67  C   LIG     1     -12.360   8.461  71.695  1.00  0.00    -0.054 A 
HETATM   68  C   LIG     1     -12.576   7.376  70.831  1.00  0.00    -0.075 A 
HETATM   69  C   LIG     1     -11.600   6.389  70.666  1.00  0.00    -0.060 A 
HETATM   70  H   LIG     1     -13.507   7.298  70.275  1.00  0.00     0.084 H 
HETATM   71  C   LIG     1     -10.397   6.489  71.367  1.00  0.00     0.074 A 
HETATM   72  H   LIG     1     -11.783   5.565  69.981  1.00  0.00     0.085 H 
HETATM   73  C   LIG     1     -10.167   7.556  72.238  1.00  0.00    -0.060 A 
HETATM   74  C   LIG     1     -11.147   8.538  72.400  1.00  0.00    -0.075 A 
HETATM   75  H   LIG     1      -9.227   7.632  72.779  1.00  0.00     0.085 H 
HETATM   76  H   LIG     1     -10.954   9.371  73.074  1.00  0.00     0.084 H 
BRANCH  71  77
HETATM   77  S   LIG     1      -9.122   5.294  71.101  1.00  0.00     0.239 S 
HETATM   78  O   LIG     1      -9.449   4.538  69.892  1.00  0.00    -0.206 OA
HETATM   79  O   LIG     1      -8.779   4.662  72.332  1.00  0.00    -0.206 OA
BRANCH  77  80
HETATM   80  N   LIG     1      -7.795   6.240  70.687  1.00  0.00    -0.225 NA
HETATM   81  H   LIG     1      -7.790   7.088  71.251  1.00  0.00     0.136 HD
HETATM   82  H   LIG     1      -7.821   6.422  69.681  1.00  0.00     0.136 HD
ENDBRANCH  77  80
ENDBRANCH  71  77
ENDBRANCH  64  67
ENDBRANCH  60  64
ENDBRANCH  50  54
ENDBRANCH   1  48
TORSDOF 13
ENDMDL
MODEL 6
REMARK VINA RESULT:      -7.0      3.503      8.702
REMARK  13 active torsions:
REMARK  status: ('A' for Active; 'I' for Inactive)
REMARK    1  A    between atoms: N_1  and  S_2 
REMARK    2  A    between atoms: S_2  and  C_5 
REMARK    3  A    between atoms: C_8  and  C_9 
REMARK    4  A    between atoms: C_9  and  C_10 
REMARK    5  A    between atoms: C_14  and  N_15 
REMARK       I    between atoms: N_15  and  C_16 
REMARK       I    between atoms: C_16  and  N_18 
REMARK    6  A    between atoms: N_18  and  C_19 
REMARK    7  A    between atoms: C_20  and  C_25 
REMARK    8  A    between atoms: C_25  and  C_27 
REMARK    9  A    between atoms: C_25  and  C_38 
REMARK   10  A    between atoms: C_27  and  N_28 
REMARK       I    between atoms: N_28  and  C_29 
REMARK   11  A    between atoms: C_29  and  C_31 
REMARK   12  A    between atoms: C_34  and  O_35 
REMARK   13  A    between atoms: C_38  and  C_39 
ROOT
HETATM    1  C   LIG     1      -7.341  19.218  66.674  1.00  0.00     0.060 A 
HETATM    2  C   LIG     1      -6.350  18.733  67.544  1.00  0.00    -0.023 A 
HETATM    3  C   LIG     1      -5.099  18.446  66.971  1.00  0.00    -0.057 A 
HETATM    4  C   LIG     1      -4.874  18.672  65.625  1.00  0.00     0.002 A 
HETATM    5  N   LIG     1      -5.827  19.080  64.773  1.00  0.00    -0.271 NA
HETATM    6  C   LIG     1      -7.035  19.341  65.312  1.00  0.00     0.028 A 
HETATM    7  H   LIG     1      -4.268  18.090  67.569  1.00  0.00     0.086 H 
HETATM    8  H   LIG     1      -3.884  18.537  65.199  1.00  0.00     0.114 H 
HETATM    9  H   LIG     1      -7.785  19.660  64.590  1.00  0.00     0.118 H 
ENDROOT
BRANCH   2  10
HETATM   10  C   LIG     1      -6.553  18.504  69.049  1.00  0.00    -0.011 C 
HETATM   11  H   LIG     1      -7.606  18.221  69.194  1.00  0.00     0.050 H 
BRANCH  10  12
HETATM   12  C   LIG     1      -5.700  17.335  69.633  1.00  0.00     0.002 C 
HETATM   13  H   LIG     1      -5.410  17.573  70.664  1.00  0.00     0.065 H 
HETATM   14  H   LIG     1      -4.771  17.229  69.059  1.00  0.00     0.065 H 
BRANCH  12  15
HETATM   15  N   LIG     1      -6.375  16.036  69.676  1.00  0.00    -0.360 N 
HETATM   16  C   LIG     1      -6.149  15.027  68.750  1.00  0.00     0.221 C 
HETATM   17  O   LIG     1      -5.458  15.174  67.747  1.00  0.00    -0.273 OA
HETATM   18  H   LIG     1      -6.726  15.737  70.575  1.00  0.00     0.162 HD
BRANCH  16  19
HETATM   19  C   LIG     1      -6.797  13.682  69.138  1.00  0.00     0.024 C 
HETATM   20  C   LIG     1      -8.212  13.482  68.558  1.00  0.00    -0.051 C 
HETATM   21  C   LIG     1      -8.284  12.821  67.177  1.00  0.00    -0.040 C 
HETATM   22  H   LIG     1      -8.762  14.429  68.511  1.00  0.00     0.034 H 
HETATM   23  H   LIG     1      -8.767  12.843  69.256  1.00  0.00     0.034 H 
HETATM   24  C   LIG     1      -7.372  11.606  67.059  1.00  0.00     0.035 C 
HETATM   25  H   LIG     1      -8.038  13.553  66.399  1.00  0.00     0.036 H 
HETATM   26  H   LIG     1      -9.324  12.509  67.008  1.00  0.00     0.036 H 
HETATM   27  C   LIG     1      -5.941  11.970  67.444  1.00  0.00    -0.040 C 
HETATM   28  H   LIG     1      -7.400  11.213  66.037  1.00  0.00     0.082 H 
HETATM   29  C   LIG     1      -5.874  12.480  68.883  1.00  0.00    -0.051 C 
HETATM   30  H   LIG     1      -5.552  12.731  66.758  1.00  0.00     0.036 H 
HETATM   31  H   LIG     1      -5.297  11.088  67.354  1.00  0.00     0.036 H 
HETATM   32  H   LIG     1      -4.834  12.719  69.137  1.00  0.00     0.034 H 
HETATM   33  H   LIG     1      -6.165  11.664  69.560  1.00  0.00     0.034 H 
HETATM   34  H   LIG     1      -6.908  13.748  70.231  1.00  0.00     0.054 H 
BRANCH  24  35
HETATM   35  O   LIG     1      -7.873  10.588  67.926  1.00  0.00    -0.396 OA
HETATM   36  H   LIG     1      -7.370   9.774  67.757  1.00  0.00     0.210 HD
ENDBRANCH  24  35
ENDBRANCH  16  19
ENDBRANCH  12  15
ENDBRANCH  10  12
BRANCH  10  37
HETATM   37  C   LIG     1      -6.361  19.805  69.883  1.00  0.00    -0.053 C 
HETATM   38  H   LIG     1      -7.071  19.846  70.720  1.00  0.00     0.034 H 
HETATM   39  H   LIG     1      -6.587  20.684  69.269  1.00  0.00     0.034 H 
BRANCH  37  40
HETATM   40  C   LIG     1      -4.942  19.928  70.386  1.00  0.00    -0.053 A 
HETATM   41  C   LIG     1      -4.226  21.250  70.367  1.00  0.00    -0.061 A 
HETATM   42  C   LIG     1      -4.673  20.664  71.675  1.00  0.00    -0.061 A 
HETATM   43  H   LIG     1      -4.757  22.103  69.963  1.00  0.00     0.033 H 
HETATM   44  H   LIG     1      -3.161  21.250  70.164  1.00  0.00     0.033 H 
HETATM   45  H   LIG     1      -5.495  21.152  72.186  1.00  0.00     0.033 H 
HETATM   46  H   LIG     1      -3.939  20.232  72.347  1.00  0.00     0.033 H 
HETATM   47  H   LIG     1      -4.337  19.059  70.152  1.00  0.00     0.040 H 
ENDBRANCH  37  40
ENDBRANCH  10  37
ENDBRANCH   2  10
BRANCH   1  48
HETATM   48  N   LIG     1      -8.634  19.538  67.127  1.00  0.00    -0.307 N 
HETATM   49  C   LIG     1      -9.689  18.653  67.211  1.00  0.00     0.325 C 
HETATM   50  N   LIG     1      -9.328  17.327  67.088  1.00  0.00    -0.309 N 
HETATM   51  O   LIG     1     -10.820  19.073  67.438  1.00  0.00    -0.247 OA
HETATM   52  H   LIG     1      -8.364  17.120  67.302  1.00  0.00     0.170 HD
HETATM   53  H   LIG     1      -8.949  20.497  66.991  1.00  0.00     0.170 HD
BRANCH  50  54
HETATM   54  C   LIG     1     -10.238  16.269  67.198  1.00  0.00     0.036 A 
HETATM   55  C   LIG     1     -10.580  15.513  66.080  1.00  0.00    -0.057 A 
HETATM   56  C   LIG     1     -11.486  14.465  66.208  1.00  0.00    -0.080 A 
HETATM   57  H   LIG     1     -10.121  15.715  65.116  1.00  0.00     0.086 H 
HETATM   58  C   LIG     1     -12.061  14.186  67.449  1.00  0.00    -0.076 A 
HETATM   59  H   LIG     1     -11.750  13.872  65.338  1.00  0.00     0.083 H 
HETATM   60  C   LIG     1     -11.697  14.915  68.591  1.00  0.00    -0.052 A 
HETATM   61  H   LIG     1     -12.798  13.391  67.519  1.00  0.00     0.084 H 
HETATM   62  C   LIG     1     -10.759  15.951  68.458  1.00  0.00    -0.051 A 
HETATM   63  H   LIG     1     -10.488  16.550  69.324  1.00  0.00     0.087 H 
BRANCH  60  64
HETATM   64  C   LIG     1     -12.333  14.590  69.925  1.00  0.00    -0.017 C 
HETATM   65  H   LIG     1     -11.810  15.142  70.717  1.00  0.00     0.047 H 
HETATM   66  H   LIG     1     -13.359  14.980  69.950  1.00  0.00     0.047 H 
BRANCH  64  67
HETATM   67  C   LIG     1     -12.348  13.118  70.271  1.00  0.00    -0.054 A 
HETATM   68  C   LIG     1     -11.594  12.209  69.513  1.00  0.00    -0.075 A 
HETATM   69  C   LIG     1     -11.587  10.847  69.829  1.00  0.00    -0.060 A 
HETATM   70  H   LIG     1     -10.999  12.560  68.672  1.00  0.00     0.084 H 
HETATM   71  C   LIG     1     -12.336  10.391  70.914  1.00  0.00     0.074 A 
HETATM   72  H   LIG     1     -10.983  10.164  69.236  1.00  0.00     0.085 H 
HETATM   73  C   LIG     1     -13.100  11.278  71.675  1.00  0.00    -0.060 A 
HETATM   74  C   LIG     1     -13.104  12.637  71.354  1.00  0.00    -0.075 A 
HETATM   75  H   LIG     1     -13.679  10.919  72.522  1.00  0.00     0.085 H 
HETATM   76  H   LIG     1     -13.695  13.322  71.958  1.00  0.00     0.084 H 
BRANCH  71  77
HETATM   77  S   LIG     1     -12.267   8.686  71.376  1.00  0.00     0.239 S 
HETATM   78  O   LIG     1     -13.638   8.179  71.454  1.00  0.00    -0.206 OA
HETATM   79  O   LIG     1     -11.319   8.500  72.424  1.00  0.00    -0.206 OA
BRANCH  77  80
HETATM   80  N   LIG     1     -11.600   7.951  70.019  1.00  0.00    -0.225 NA
HETATM   81  H   LIG     1     -12.116   7.101  69.801  1.00  0.00     0.136 HD
HETATM   82  H   LIG     1     -10.604   7.788  70.189  1.00  0.00     0.136 HD
ENDBRANCH  77  80
ENDBRANCH  71  77
ENDBRANCH  64  67
ENDBRANCH  60  64
ENDBRANCH  50  54
ENDBRANCH   1  48
TORSDOF 13
ENDMDL
MODEL 7
REMARK VINA RESULT:      -6.6      5.741      8.322
REMARK  13 active torsions:
REMARK  status: ('A' for Active; 'I' for Inactive)
REMARK    1  A    between atoms: N_1  and  S_2 
REMARK    2  A    between atoms: S_2  and  C_5 
REMARK    3  A    between atoms: C_8  and  C_9 
REMARK    4  A    between atoms: C_9  and  C_10 
REMARK    5  A    between atoms: C_14  and  N_15 
REMARK       I    between atoms: N_15  and  C_16 
REMARK       I    between atoms: C_16  and  N_18 
REMARK    6  A    between atoms: N_18  and  C_19 
REMARK    7  A    between atoms: C_20  and  C_25 
REMARK    8  A    between atoms: C_25  and  C_27 
REMARK    9  A    between atoms: C_25  and  C_38 
REMARK   10  A    between atoms: C_27  and  N_28 
REMARK       I    between atoms: N_28  and  C_29 
REMARK   11  A    between atoms: C_29  and  C_31 
REMARK   12  A    between atoms: C_34  and  O_35 
REMARK   13  A    between atoms: C_38  and  C_39 
ROOT
HETATM    1  C   LIG     1      -8.303  11.638  67.209  1.00  0.00     0.060 A 
HETATM    2  C   LIG     1      -9.459  12.405  67.434  1.00  0.00    -0.023 A 
HETATM    3  C   LIG     1      -9.262  13.768  67.712  1.00  0.00    -0.057 A 
HETATM    4  C   LIG     1      -7.988  14.307  67.725  1.00  0.00     0.002 A 
HETATM    5  N   LIG     1      -6.873  13.576  67.569  1.00  0.00    -0.271 NA
HETATM    6  C   LIG     1      -7.053  12.263  67.317  1.00  0.00     0.028 A 
HETATM    7  H   LIG     1     -10.096  14.442  67.876  1.00  0.00     0.086 H 
HETATM    8  H   LIG     1      -7.839  15.375  67.850  1.00  0.00     0.114 H 
HETATM    9  H   LIG     1      -6.128  11.701  67.206  1.00  0.00     0.118 H 
ENDROOT
BRANCH   2  10
HETATM   10  C   LIG     1     -10.890  11.850  67.393  1.00  0.00    -0.011 C 
HETATM   11  H   LIG     1     -10.817  10.787  67.118  1.00  0.00     0.050 H 
BRANCH  10  12
HETATM   12  C   LIG     1     -11.628  11.898  68.767  1.00  0.00     0.002 C 
HETATM   13  H   LIG     1     -12.689  11.661  68.621  1.00  0.00     0.065 H 
HETATM   14  H   LIG     1     -11.585  12.916  69.177  1.00  0.00     0.065 H 
BRANCH  12  15
HETATM   15  N   LIG     1     -11.124  10.964  69.775  1.00  0.00    -0.360 N 
HETATM   16  C   LIG     1     -11.935  10.352  70.721  1.00  0.00     0.221 C 
HETATM   17  O   LIG     1     -13.120  10.630  70.876  1.00  0.00    -0.273 OA
HETATM   18  H   LIG     1     -10.263  10.483  69.557  1.00  0.00     0.162 HD
BRANCH  16  19
HETATM   19  C   LIG     1     -11.219   9.241  71.516  1.00  0.00     0.024 C 
HETATM   20  C   LIG     1     -12.180   8.269  72.230  1.00  0.00    -0.051 C 
HETATM   21  C   LIG     1     -12.621   7.044  71.421  1.00  0.00    -0.040 C 
HETATM   22  H   LIG     1     -13.080   8.784  72.585  1.00  0.00     0.034 H 
HETATM   23  H   LIG     1     -11.669   7.900  73.129  1.00  0.00     0.034 H 
HETATM   24  C   LIG     1     -11.462   6.373  70.693  1.00  0.00     0.035 C 
HETATM   25  H   LIG     1     -13.399   7.331  70.703  1.00  0.00     0.036 H 
HETATM   26  H   LIG     1     -13.075   6.326  72.118  1.00  0.00     0.036 H 
HETATM   27  C   LIG     1     -10.709   7.385  69.836  1.00  0.00    -0.040 C 
HETATM   28  H   LIG     1     -11.835   5.552  70.071  1.00  0.00     0.082 H 
HETATM   29  C   LIG     1     -10.143   8.517  70.692  1.00  0.00    -0.051 C 
HETATM   30  H   LIG     1     -11.375   7.793  69.067  1.00  0.00     0.036 H 
HETATM   31  H   LIG     1      -9.880   6.888  69.319  1.00  0.00     0.036 H 
HETATM   32  H   LIG     1      -9.595   9.219  70.053  1.00  0.00     0.034 H 
HETATM   33  H   LIG     1      -9.397   8.098  71.382  1.00  0.00     0.034 H 
HETATM   34  H   LIG     1     -10.678   9.787  72.303  1.00  0.00     0.054 H 
BRANCH  24  35
HETATM   35  O   LIG     1     -10.590   5.809  71.673  1.00  0.00    -0.396 OA
HETATM   36  H   LIG     1     -10.425   4.882  71.432  1.00  0.00     0.210 HD
ENDBRANCH  24  35
ENDBRANCH  16  19
ENDBRANCH  12  15
ENDBRANCH  10  12
BRANCH  10  37
HETATM   37  C   LIG     1     -11.753  12.502  66.273  1.00  0.00    -0.053 C 
HETATM   38  H   LIG     1     -11.638  13.594  66.271  1.00  0.00     0.034 H 
HETATM   39  H   LIG     1     -12.817  12.324  66.463  1.00  0.00     0.034 H 
BRANCH  37  40
HETATM   40  C   LIG     1     -11.411  11.932  64.916  1.00  0.00    -0.053 A 
HETATM   41  C   LIG     1     -12.336  12.113  63.745  1.00  0.00    -0.061 A 
HETATM   42  C   LIG     1     -11.038  12.865  63.792  1.00  0.00    -0.061 A 
HETATM   43  H   LIG     1     -13.262  12.649  63.914  1.00  0.00     0.033 H 
HETATM   44  H   LIG     1     -12.413  11.305  63.026  1.00  0.00     0.033 H 
HETATM   45  H   LIG     1     -11.086  13.936  63.955  1.00  0.00     0.033 H 
HETATM   46  H   LIG     1     -10.219  12.562  63.148  1.00  0.00     0.033 H 
HETATM   47  H   LIG     1     -10.909  10.972  64.979  1.00  0.00     0.040 H 
ENDBRANCH  37  40
ENDBRANCH  10  37
ENDBRANCH   2  10
BRANCH   1  48
HETATM   48  N   LIG     1      -8.369  10.263  66.924  1.00  0.00    -0.307 N 
HETATM   49  C   LIG     1      -8.436   9.715  65.659  1.00  0.00     0.325 C 
HETATM   50  N   LIG     1      -8.144  10.601  64.642  1.00  0.00    -0.309 N 
HETATM   51  O   LIG     1      -8.681   8.520  65.524  1.00  0.00    -0.247 OA
HETATM   52  H   LIG     1      -7.592  11.401  64.911  1.00  0.00     0.170 HD
HETATM   53  H   LIG     1      -8.805   9.664  67.623  1.00  0.00     0.170 HD
BRANCH  50  54
HETATM   54  C   LIG     1      -8.102  10.233  63.291  1.00  0.00     0.036 A 
HETATM   55  C   LIG     1      -9.252   9.783  62.647  1.00  0.00    -0.057 A 
HETATM   56  C   LIG     1      -9.192   9.422  61.305  1.00  0.00    -0.080 A 
HETATM   57  H   LIG     1     -10.200   9.741  63.176  1.00  0.00     0.086 H 
HETATM   58  C   LIG     1      -7.981   9.496  60.615  1.00  0.00    -0.076 A 
HETATM   59  H   LIG     1     -10.088   9.075  60.800  1.00  0.00     0.083 H 
HETATM   60  C   LIG     1      -6.824   9.983  61.240  1.00  0.00    -0.052 A 
HETATM   61  H   LIG     1      -7.947   9.169  59.579  1.00  0.00     0.084 H 
HETATM   62  C   LIG     1      -6.901  10.373  62.587  1.00  0.00    -0.051 A 
HETATM   63  H   LIG     1      -6.009  10.723  63.100  1.00  0.00     0.087 H 
BRANCH  60  64
HETATM   64  C   LIG     1      -5.526  10.056  60.468  1.00  0.00    -0.017 C 
HETATM   65  H   LIG     1      -4.690   9.841  61.148  1.00  0.00     0.047 H 
HETATM   66  H   LIG     1      -5.491   9.247  59.726  1.00  0.00     0.047 H 
BRANCH  64  67
HETATM   67  C   LIG     1      -5.279  11.379  59.779  1.00  0.00    -0.054 A 
HETATM   68  C   LIG     1      -4.835  11.407  58.448  1.00  0.00    -0.075 A 
HETATM   69  C   LIG     1      -4.615  12.623  57.793  1.00  0.00    -0.060 A 
HETATM   70  H   LIG     1      -4.663  10.478  57.909  1.00  0.00     0.084 H 
HETATM   71  C   LIG     1      -4.845  13.820  58.473  1.00  0.00     0.074 A 
HETATM   72  H   LIG     1      -4.285  12.620  56.757  1.00  0.00     0.085 H 
HETATM   73  C   LIG     1      -5.278  13.812  59.800  1.00  0.00    -0.060 A 
HETATM   74  C   LIG     1      -5.495  12.595  60.449  1.00  0.00    -0.075 A 
HETATM   75  H   LIG     1      -5.460  14.747  60.325  1.00  0.00     0.085 H 
HETATM   76  H   LIG     1      -5.841  12.600  61.481  1.00  0.00     0.084 H 
BRANCH  71  77
HETATM   77  S   LIG     1      -4.653  15.362  57.629  1.00  0.00     0.239 S 
HETATM   78  O   LIG     1      -5.784  16.219  57.984  1.00  0.00    -0.206 OA
HETATM   79  O   LIG     1      -4.255  15.136  56.280  1.00  0.00    -0.206 OA
BRANCH  77  80
HETATM   80  N   LIG     1      -3.320  16.049  58.391  1.00  0.00    -0.225 NA
HETATM   81  H   LIG     1      -3.634  16.702  59.106  1.00  0.00     0.136 HD
HETATM   82  H   LIG     1      -2.722  16.479  57.682  1.00  0.00     0.136 HD
ENDBRANCH  77  80
ENDBRANCH  71  77
ENDBRANCH  64  67
ENDBRANCH  60  64
ENDBRANCH  50  54
ENDBRANCH   1  48
TORSDOF 13
ENDMDL
MODEL 8
REMARK VINA RESULT:      -6.6      3.977     11.180
REMARK  13 active torsions:
REMARK  status: ('A' for Active; 'I' for Inactive)
REMARK    1  A    between atoms: N_1  and  S_2 
REMARK    2  A    between atoms: S_2  and  C_5 
REMARK    3  A    between atoms: C_8  and  C_9 
REMARK    4  A    between atoms: C_9  and  C_10 
REMARK    5  A    between atoms: C_14  and  N_15 
REMARK       I    between atoms: N_15  and  C_16 
REMARK       I    between atoms: C_16  and  N_18 
REMARK    6  A    between atoms: N_18  and  C_19 
REMARK    7  A    between atoms: C_20  and  C_25 
REMARK    8  A    between atoms: C_25  and  C_27 
REMARK    9  A    between atoms: C_25  and  C_38 
REMARK   10  A    between atoms: C_27  and  N_28 
REMARK       I    between atoms: N_28  and  C_29 
REMARK   11  A    between atoms: C_29  and  C_31 
REMARK   12  A    between atoms: C_34  and  O_35 
REMARK   13  A    between atoms: C_38  and  C_39 
ROOT
HETATM    1  C   LIG     1      -8.724  11.581  67.379  1.00  0.00     0.060 A 
HETATM    2  C   LIG     1      -9.205  12.893  67.223  1.00  0.00    -0.023 A 
HETATM    3  C   LIG     1      -8.308  13.929  67.534  1.00  0.00    -0.057 A 
HETATM    4  C   LIG     1      -7.016  13.644  67.940  1.00  0.00     0.002 A 
HETATM    5  N   LIG     1      -6.564  12.398  68.148  1.00  0.00    -0.271 NA
HETATM    6  C   LIG     1      -7.423  11.397  67.867  1.00  0.00     0.028 A 
HETATM    7  H   LIG     1      -8.583  14.972  67.422  1.00  0.00     0.086 H 
HETATM    8  H   LIG     1      -6.296  14.442  68.094  1.00  0.00     0.114 H 
HETATM    9  H   LIG     1      -7.026  10.403  68.057  1.00  0.00     0.118 H 
ENDROOT
BRANCH   2  10
HETATM   10  C   LIG     1     -10.619  13.247  66.742  1.00  0.00    -0.011 C 
HETATM   11  H   LIG     1     -11.284  12.433  67.065  1.00  0.00     0.050 H 
BRANCH  10  12
HETATM   12  C   LIG     1     -11.192  14.557  67.368  1.00  0.00     0.002 C 
HETATM   13  H   LIG     1     -10.829  14.657  68.399  1.00  0.00     0.065 H 
HETATM   14  H   LIG     1     -12.286  14.497  67.423  1.00  0.00     0.065 H 
BRANCH  12  15
HETATM   15  N   LIG     1     -10.823  15.790  66.672  1.00  0.00    -0.360 N 
HETATM   16  C   LIG     1     -10.491  16.968  67.328  1.00  0.00     0.221 C 
HETATM   17  O   LIG     1     -10.593  17.116  68.542  1.00  0.00    -0.273 OA
HETATM   18  H   LIG     1     -10.455  15.690  65.736  1.00  0.00     0.162 HD
BRANCH  16  19
HETATM   19  C   LIG     1      -9.918  18.051  66.393  1.00  0.00     0.024 C 
HETATM   20  C   LIG     1     -10.420  19.475  66.708  1.00  0.00    -0.051 C 
HETATM   21  C   LIG     1      -9.586  20.274  67.716  1.00  0.00    -0.040 C 
HETATM   22  H   LIG     1     -11.458  19.464  67.058  1.00  0.00     0.034 H 
HETATM   23  H   LIG     1     -10.425  20.039  65.767  1.00  0.00     0.034 H 
HETATM   24  C   LIG     1      -8.088  20.173  67.449  1.00  0.00     0.035 C 
HETATM   25  H   LIG     1      -9.810  19.939  68.735  1.00  0.00     0.036 H 
HETATM   26  H   LIG     1      -9.894  21.326  67.648  1.00  0.00     0.036 H 
HETATM   27  C   LIG     1      -7.655  18.712  67.378  1.00  0.00    -0.040 C 
HETATM   28  H   LIG     1      -7.532  20.695  68.235  1.00  0.00     0.082 H 
HETATM   29  C   LIG     1      -8.389  17.976  66.258  1.00  0.00    -0.051 C 
HETATM   30  H   LIG     1      -7.843  18.218  68.338  1.00  0.00     0.036 H 
HETATM   31  H   LIG     1      -6.577  18.655  67.187  1.00  0.00     0.036 H 
HETATM   32  H   LIG     1      -8.046  16.935  66.220  1.00  0.00     0.034 H 
HETATM   33  H   LIG     1      -8.099  18.420  65.295  1.00  0.00     0.034 H 
HETATM   34  H   LIG     1     -10.320  17.785  65.404  1.00  0.00     0.054 H 
BRANCH  24  35
HETATM   35  O   LIG     1      -7.812  20.832  66.214  1.00  0.00    -0.396 OA
HETATM   36  H   LIG     1      -7.271  21.617  66.406  1.00  0.00     0.210 HD
ENDBRANCH  24  35
ENDBRANCH  16  19
ENDBRANCH  12  15
ENDBRANCH  10  12
BRANCH  10  37
HETATM   37  C   LIG     1     -10.733  13.275  65.189  1.00  0.00    -0.053 C 
HETATM   38  H   LIG     1      -9.742  13.335  64.721  1.00  0.00     0.034 H 
HETATM   39  H   LIG     1     -11.261  14.179  64.865  1.00  0.00     0.034 H 
BRANCH  37  40
HETATM   40  C   LIG     1     -11.489  12.073  64.674  1.00  0.00    -0.053 A 
HETATM   41  C   LIG     1     -12.283  12.146  63.399  1.00  0.00    -0.061 A 
HETATM   42  C   LIG     1     -11.002  11.365  63.435  1.00  0.00    -0.061 A 
HETATM   43  H   LIG     1     -12.308  13.094  62.876  1.00  0.00     0.033 H 
HETATM   44  H   LIG     1     -13.206  11.579  63.339  1.00  0.00     0.033 H 
HETATM   45  H   LIG     1     -10.154  11.769  62.893  1.00  0.00     0.033 H 
HETATM   46  H   LIG     1     -11.035  10.281  63.439  1.00  0.00     0.033 H 
HETATM   47  H   LIG     1     -11.927  11.480  65.470  1.00  0.00     0.040 H 
ENDBRANCH  37  40
ENDBRANCH  10  37
ENDBRANCH   2  10
BRANCH   1  48
HETATM   48  N   LIG     1      -9.526  10.460  67.102  1.00  0.00    -0.307 N 
HETATM   49  C   LIG     1     -10.270   9.763  68.033  1.00  0.00     0.325 C 
HETATM   50  N   LIG     1     -10.412  10.411  69.244  1.00  0.00    -0.309 N 
HETATM   51  O   LIG     1     -10.782   8.691  67.726  1.00  0.00    -0.247 OA
HETATM   52  H   LIG     1     -10.287  11.411  69.216  1.00  0.00     0.170 HD
HETATM   53  H   LIG     1      -9.248   9.872  66.318  1.00  0.00     0.170 HD
BRANCH  50  54
HETATM   54  C   LIG     1     -11.173   9.901  70.303  1.00  0.00     0.036 A 
HETATM   55  C   LIG     1     -12.476  10.344  70.512  1.00  0.00    -0.057 A 
HETATM   56  C   LIG     1     -13.217   9.828  71.569  1.00  0.00    -0.080 A 
HETATM   57  H   LIG     1     -12.928  11.067  69.838  1.00  0.00     0.086 H 
HETATM   58  C   LIG     1     -12.650   8.882  72.424  1.00  0.00    -0.076 A 
HETATM   59  H   LIG     1     -14.235  10.169  71.731  1.00  0.00     0.083 H 
HETATM   60  C   LIG     1     -11.352   8.398  72.203  1.00  0.00    -0.052 A 
HETATM   61  H   LIG     1     -13.231   8.522  73.269  1.00  0.00     0.084 H 
HETATM   62  C   LIG     1     -10.622   8.904  71.116  1.00  0.00    -0.051 A 
HETATM   63  H   LIG     1      -9.602   8.567  70.945  1.00  0.00     0.087 H 
BRANCH  60  64
HETATM   64  C   LIG     1     -10.762   7.370  73.143  1.00  0.00    -0.017 C 
HETATM   65  H   LIG     1     -10.134   7.880  73.887  1.00  0.00     0.047 H 
HETATM   66  H   LIG     1     -11.563   6.905  73.733  1.00  0.00     0.047 H 
BRANCH  64  67
HETATM   67  C   LIG     1      -9.950   6.291  72.463  1.00  0.00    -0.054 A 
HETATM   68  C   LIG     1     -10.583   5.345  71.641  1.00  0.00    -0.075 A 
HETATM   69  C   LIG     1      -9.844   4.350  70.995  1.00  0.00    -0.060 A 
HETATM   70  H   LIG     1     -11.660   5.384  71.494  1.00  0.00     0.084 H 
HETATM   71  C   LIG     1      -8.460   4.302  71.168  1.00  0.00     0.074 A 
HETATM   72  H   LIG     1     -10.354   3.638  70.352  1.00  0.00     0.085 H 
HETATM   73  C   LIG     1      -7.812   5.228  71.989  1.00  0.00    -0.060 A 
HETATM   74  C   LIG     1      -8.556   6.219  72.633  1.00  0.00    -0.075 A 
HETATM   75  H   LIG     1      -6.734   5.189  72.119  1.00  0.00     0.085 H 
HETATM   76  H   LIG     1      -8.042   6.942  73.263  1.00  0.00     0.084 H 
BRANCH  71  77
HETATM   77  S   LIG     1      -7.504   3.102  70.290  1.00  0.00     0.239 S 
HETATM   78  O   LIG     1      -6.095   3.312  70.620  1.00  0.00    -0.206 OA
HETATM   79  O   LIG     1      -7.971   2.992  68.947  1.00  0.00    -0.206 OA
BRANCH  77  80
HETATM   80  N   LIG     1      -7.925   1.657  71.040  1.00  0.00    -0.225 NA
HETATM   81  H   LIG     1      -7.130   1.021  71.028  1.00  0.00     0.136 HD
HETATM   82  H   LIG     1      -8.756   1.277  70.580  1.00  0.00     0.136 HD
ENDBRANCH  77  80
ENDBRANCH  71  77
ENDBRANCH  64  67
ENDBRANCH  60  64
ENDBRANCH  50  54
ENDBRANCH   1  48
TORSDOF 13
ENDMDL
MODEL 9
REMARK VINA RESULT:      -6.0      5.929      8.564
REMARK  13 active torsions:
REMARK  status: ('A' for Active; 'I' for Inactive)
REMARK    1  A    between atoms: N_1  and  S_2 
REMARK    2  A    between atoms: S_2  and  C_5 
REMARK    3  A    between atoms: C_8  and  C_9 
REMARK    4  A    between atoms: C_9  and  C_10 
REMARK    5  A    between atoms: C_14  and  N_15 
REMARK       I    between atoms: N_15  and  C_16 
REMARK       I    between atoms: C_16  and  N_18 
REMARK    6  A    between atoms: N_18  and  C_19 
REMARK    7  A    between atoms: C_20  and  C_25 
REMARK    8  A    between atoms: C_25  and  C_27 
REMARK    9  A    between atoms: C_25  and  C_38 
REMARK   10  A    between atoms: C_27  and  N_28 
REMARK       I    between atoms: N_28  and  C_29 
REMARK   11  A    between atoms: C_29  and  C_31 
REMARK   12  A    between atoms: C_34  and  O_35 
REMARK   13  A    between atoms: C_38  and  C_39 
ROOT
HETATM    1  C   LIG     1      -8.090  11.364  66.975  1.00  0.00     0.060 A 
HETATM    2  C   LIG     1      -9.337  12.010  67.042  1.00  0.00    -0.023 A 
HETATM    3  C   LIG     1      -9.319  13.370  67.394  1.00  0.00    -0.057 A 
HETATM    4  C   LIG     1      -8.121  14.022  67.625  1.00  0.00     0.002 A 
HETATM    5  N   LIG     1      -6.929  13.404  67.620  1.00  0.00    -0.271 NA
HETATM    6  C   LIG     1      -6.939  12.094  67.299  1.00  0.00     0.028 A 
HETATM    7  H   LIG     1     -10.230  13.955  67.449  1.00  0.00     0.086 H 
HETATM    8  H   LIG     1      -8.099  15.092  67.808  1.00  0.00     0.114 H 
HETATM    9  H   LIG     1      -5.957  11.625  67.316  1.00  0.00     0.118 H 
ENDROOT
BRANCH   2  10
HETATM   10  C   LIG     1     -10.684  11.328  66.759  1.00  0.00    -0.011 C 
HETATM   11  H   LIG     1     -10.487  10.499  66.063  1.00  0.00     0.050 H 
BRANCH  10  12
HETATM   12  C   LIG     1     -11.351  10.695  68.019  1.00  0.00     0.002 C 
HETATM   13  H   LIG     1     -12.433  10.869  67.986  1.00  0.00     0.065 H 
HETATM   14  H   LIG     1     -10.979  11.190  68.926  1.00  0.00     0.065 H 
BRANCH  12  15
HETATM   15  N   LIG     1     -11.161   9.250  68.162  1.00  0.00    -0.360 N 
HETATM   16  C   LIG     1     -10.158   8.685  68.936  1.00  0.00     0.221 C 
HETATM   17  O   LIG     1      -9.268   9.339  69.471  1.00  0.00    -0.273 OA
HETATM   18  H   LIG     1     -11.971   8.669  67.998  1.00  0.00     0.162 HD
BRANCH  16  19
HETATM   19  C   LIG     1     -10.306   7.160  69.114  1.00  0.00     0.024 C 
HETATM   20  C   LIG     1     -11.227   6.498  68.069  1.00  0.00    -0.051 C 
HETATM   21  C   LIG     1     -10.547   6.019  66.781  1.00  0.00    -0.040 C 
HETATM   22  H   LIG     1     -12.055   7.159  67.791  1.00  0.00     0.034 H 
HETATM   23  H   LIG     1     -11.686   5.621  68.542  1.00  0.00     0.034 H 
HETATM   24  C   LIG     1      -9.247   5.269  67.048  1.00  0.00     0.035 C 
HETATM   25  H   LIG     1     -10.360   6.871  66.118  1.00  0.00     0.036 H 
HETATM   26  H   LIG     1     -11.248   5.352  66.260  1.00  0.00     0.036 H 
HETATM   27  C   LIG     1      -8.311   6.110  67.910  1.00  0.00    -0.040 C 
HETATM   28  H   LIG     1      -8.761   5.013  66.101  1.00  0.00     0.082 H 
HETATM   29  C   LIG     1      -8.954   6.442  69.256  1.00  0.00    -0.051 C 
HETATM   30  H   LIG     1      -8.045   7.034  67.383  1.00  0.00     0.036 H 
HETATM   31  H   LIG     1      -7.381   5.559  68.093  1.00  0.00     0.036 H 
HETATM   32  H   LIG     1      -8.254   7.032  69.859  1.00  0.00     0.034 H 
HETATM   33  H   LIG     1      -9.111   5.507  69.812  1.00  0.00     0.034 H 
HETATM   34  H   LIG     1     -10.805   7.056  70.089  1.00  0.00     0.054 H 
BRANCH  24  35
HETATM   35  O   LIG     1      -9.567   4.047  67.712  1.00  0.00    -0.396 OA
HETATM   36  H   LIG     1     -10.030   4.266  68.539  1.00  0.00     0.210 HD
ENDBRANCH  24  35
ENDBRANCH  16  19
ENDBRANCH  12  15
ENDBRANCH  10  12
BRANCH  10  37
HETATM   37  C   LIG     1     -11.680  12.262  66.009  1.00  0.00    -0.053 C 
HETATM   38  H   LIG     1     -11.845  13.193  66.567  1.00  0.00     0.034 H 
HETATM   39  H   LIG     1     -12.665  11.786  65.941  1.00  0.00     0.034 H 
BRANCH  37  40
HETATM   40  C   LIG     1     -11.200  12.562  64.608  1.00  0.00    -0.053 A 
HETATM   41  C   LIG     1     -11.647  11.727  63.441  1.00  0.00    -0.061 A 
HETATM   42  C   LIG     1     -12.166  13.127  63.597  1.00  0.00    -0.061 A 
HETATM   43  H   LIG     1     -12.309  10.894  63.644  1.00  0.00     0.033 H 
HETATM   44  H   LIG     1     -10.939  11.549  62.639  1.00  0.00     0.033 H 
HETATM   45  H   LIG     1     -13.208  13.246  63.872  1.00  0.00     0.033 H 
HETATM   46  H   LIG     1     -11.797  13.910  62.945  1.00  0.00     0.033 H 
HETATM   47  H   LIG     1     -10.168  12.899  64.581  1.00  0.00     0.040 H 
ENDBRANCH  37  40
ENDBRANCH  10  37
ENDBRANCH   2  10
BRANCH   1  48
HETATM   48  N   LIG     1      -7.977  10.004  66.636  1.00  0.00    -0.307 N 
HETATM   49  C   LIG     1      -8.019   9.497  65.353  1.00  0.00     0.325 C 
HETATM   50  N   LIG     1      -7.895  10.451  64.363  1.00  0.00    -0.309 N 
HETATM   51  O   LIG     1      -8.101   8.285  65.178  1.00  0.00    -0.247 OA
HETATM   52  H   LIG     1      -7.449  11.311  64.645  1.00  0.00     0.170 HD
HETATM   53  H   LIG     1      -8.296   9.326  67.325  1.00  0.00     0.170 HD
BRANCH  50  54
HETATM   54  C   LIG     1      -7.858  10.142  62.999  1.00  0.00     0.036 A 
HETATM   55  C   LIG     1      -8.982   9.620  62.363  1.00  0.00    -0.057 A 
HETATM   56  C   LIG     1      -8.928   9.318  61.007  1.00  0.00    -0.080 A 
HETATM   57  H   LIG     1      -9.909   9.476  62.912  1.00  0.00     0.086 H 
HETATM   58  C   LIG     1      -7.746   9.522  60.292  1.00  0.00    -0.076 A 
HETATM   59  H   LIG     1      -9.804   8.915  60.509  1.00  0.00     0.083 H 
HETATM   60  C   LIG     1      -6.618  10.083  60.910  1.00  0.00    -0.052 A 
HETATM   61  H   LIG     1      -7.712   9.240  59.243  1.00  0.00     0.084 H 
HETATM   62  C   LIG     1      -6.692  10.412  62.272  1.00  0.00    -0.051 A 
HETATM   63  H   LIG     1      -5.820  10.817  62.779  1.00  0.00     0.087 H 
BRANCH  60  64
HETATM   64  C   LIG     1      -5.352  10.297  60.111  1.00  0.00    -0.017 C 
HETATM   65  H   LIG     1      -4.484  10.062  60.742  1.00  0.00     0.047 H 
HETATM   66  H   LIG     1      -5.302   9.565  59.293  1.00  0.00     0.047 H 
BRANCH  64  67
HETATM   67  C   LIG     1      -5.194  11.691  59.546  1.00  0.00    -0.054 A 
HETATM   68  C   LIG     1      -5.464  12.810  60.349  1.00  0.00    -0.075 A 
HETATM   69  C   LIG     1      -5.310  14.105  59.845  1.00  0.00    -0.060 A 
HETATM   70  H   LIG     1      -5.792  12.678  61.378  1.00  0.00     0.084 H 
HETATM   71  C   LIG     1      -4.878  14.283  58.530  1.00  0.00     0.074 A 
HETATM   72  H   LIG     1      -5.512  14.957  60.490  1.00  0.00     0.085 H 
HETATM   73  C   LIG     1      -4.612  13.181  57.713  1.00  0.00    -0.060 A 
HETATM   74  C   LIG     1      -4.769  11.890  58.222  1.00  0.00    -0.075 A 
HETATM   75  H   LIG     1      -4.271  13.324  56.691  1.00  0.00     0.085 H 
HETATM   76  H   LIG     1      -4.551  11.039  57.580  1.00  0.00     0.084 H 
BRANCH  71  77
HETATM   77  S   LIG     1      -4.596  15.914  57.909  1.00  0.00     0.239 S 
HETATM   78  O   LIG     1      -5.231  16.017  56.596  1.00  0.00    -0.206 OA
HETATM   79  O   LIG     1      -3.243  16.299  58.141  1.00  0.00    -0.206 OA
BRANCH  77  80
HETATM   80  N   LIG     1      -5.527  16.875  58.929  1.00  0.00    -0.225 NA
HETATM   81  H   LIG     1      -6.502  16.587  58.874  1.00  0.00     0.136 HD
HETATM   82  H   LIG     1      -5.378  17.856  58.682  1.00  0.00     0.136 HD
ENDBRANCH  77  80
ENDBRANCH  71  77
ENDBRANCH  64  67
ENDBRANCH  60  64
ENDBRANCH  50  54
ENDBRANCH   1  48
TORSDOF 13
ENDMDL
MODEL 10
REMARK VINA RESULT:      -5.6      4.356      9.679
REMARK  13 active torsions:
REMARK  status: ('A' for Active; 'I' for Inactive)
REMARK    1  A    between atoms: N_1  and  S_2 
REMARK    2  A    between atoms: S_2  and  C_5 
REMARK    3  A    between atoms: C_8  and  C_9 
REMARK    4  A    between atoms: C_9  and  C_10 
REMARK    5  A    between atoms: C_14  and  N_15 
REMARK       I    between atoms: N_15  and  C_16 
REMARK       I    between atoms: C_16  and  N_18 
REMARK    6  A    between atoms: N_18  and  C_19 
REMARK    7  A    between atoms: C_20  and  C_25 
REMARK    8  A    between atoms: C_25  and  C_27 
REMARK    9  A    between atoms: C_25  and  C_38 
REMARK   10  A    between atoms: C_27  and  N_28 
REMARK       I    between atoms: N_28  and  C_29 
REMARK   11  A    between atoms: C_29  and  C_31 
REMARK   12  A    between atoms: C_34  and  O_35 
REMARK   13  A    between atoms: C_38  and  C_39 
ROOT
HETATM    1  C   LIG     1      -8.544  10.683  66.557  1.00  0.00     0.060 A 
HETATM    2  C   LIG     1      -9.883  11.063  66.363  1.00  0.00    -0.023 A 
HETATM    3  C   LIG     1     -10.426  10.817  65.090  1.00  0.00    -0.057 A 
HETATM    4  C   LIG     1      -9.669  10.200  64.109  1.00  0.00     0.002 A 
HETATM    5  N   LIG     1      -8.374   9.884  64.263  1.00  0.00    -0.271 NA
HETATM    6  C   LIG     1      -7.840  10.132  65.477  1.00  0.00     0.028 A 
HETATM    7  H   LIG     1     -11.457  11.057  64.855  1.00  0.00     0.086 H 
HETATM    8  H   LIG     1     -10.113   9.928  63.157  1.00  0.00     0.114 H 
HETATM    9  H   LIG     1      -6.787   9.873  65.561  1.00  0.00     0.118 H 
ENDROOT
BRANCH   2  10
HETATM   10  C   LIG     1     -10.764  11.718  67.437  1.00  0.00    -0.011 C 
HETATM   11  H   LIG     1     -10.090  12.226  68.142  1.00  0.00     0.050 H 
BRANCH  10  12
HETATM   12  C   LIG     1     -11.729  12.812  66.885  1.00  0.00     0.002 C 
HETATM   13  H   LIG     1     -12.706  12.718  67.374  1.00  0.00     0.065 H 
HETATM   14  H   LIG     1     -11.896  12.654  65.812  1.00  0.00     0.065 H 
BRANCH  12  15
HETATM   15  N   LIG     1     -11.287  14.192  67.094  1.00  0.00    -0.360 N 
HETATM   16  C   LIG     1     -10.506  14.889  66.182  1.00  0.00     0.221 C 
HETATM   17  O   LIG     1     -10.017  14.377  65.181  1.00  0.00    -0.273 OA
HETATM   18  H   LIG     1     -11.844  14.757  67.718  1.00  0.00     0.162 HD
BRANCH  16  19
HETATM   19  C   LIG     1     -10.367  16.389  66.515  1.00  0.00     0.024 C 
HETATM   20  C   LIG     1     -10.739  16.741  67.970  1.00  0.00    -0.051 C 
HETATM   21  C   LIG     1      -9.596  16.676  68.990  1.00  0.00    -0.040 C 
HETATM   22  H   LIG     1     -11.558  16.113  68.336  1.00  0.00     0.034 H 
HETATM   23  H   LIG     1     -11.121  17.770  67.972  1.00  0.00     0.034 H 
HETATM   24  C   LIG     1      -8.318  17.335  68.483  1.00  0.00     0.035 C 
HETATM   25  H   LIG     1      -9.399  15.633  69.263  1.00  0.00     0.036 H 
HETATM   26  H   LIG     1      -9.931  17.190  69.901  1.00  0.00     0.036 H 
HETATM   27  C   LIG     1      -7.914  16.751  67.133  1.00  0.00    -0.040 C 
HETATM   28  H   LIG     1      -7.512  17.198  69.212  1.00  0.00     0.082 H 
HETATM   29  C   LIG     1      -9.009  16.971  66.090  1.00  0.00    -0.051 C 
HETATM   30  H   LIG     1      -7.702  15.681  67.236  1.00  0.00     0.036 H 
HETATM   31  H   LIG     1      -6.994  17.234  66.783  1.00  0.00     0.036 H 
HETATM   32  H   LIG     1      -8.684  16.556  65.128  1.00  0.00     0.034 H 
HETATM   33  H   LIG     1      -9.127  18.051  65.924  1.00  0.00     0.034 H 
HETATM   34  H   LIG     1     -11.115  16.873  65.870  1.00  0.00     0.054 H 
BRANCH  24  35
HETATM   35  O   LIG     1      -8.559  18.737  68.364  1.00  0.00    -0.396 OA
HETATM   36  H   LIG     1      -7.723  19.202  68.539  1.00  0.00     0.210 HD
ENDBRANCH  24  35
ENDBRANCH  16  19
ENDBRANCH  12  15
ENDBRANCH  10  12
BRANCH  10  37
HETATM   37  C   LIG     1     -11.537  10.672  68.294  1.00  0.00    -0.053 C 
HETATM   38  H   LIG     1     -11.227   9.649  68.043  1.00  0.00     0.034 H 
HETATM   39  H   LIG     1     -12.608  10.714  68.065  1.00  0.00     0.034 H 
BRANCH  37  40
HETATM   40  C   LIG     1     -11.355  10.933  69.771  1.00  0.00    -0.053 A 
HETATM   41  C   LIG     1     -12.520  10.858  70.719  1.00  0.00    -0.061 A 
HETATM   42  C   LIG     1     -11.467   9.788  70.746  1.00  0.00    -0.061 A 
HETATM   43  H   LIG     1     -13.493  10.629  70.303  1.00  0.00     0.033 H 
HETATM   44  H   LIG     1     -12.543  11.549  71.554  1.00  0.00     0.033 H 
HETATM   45  H   LIG     1     -11.743   8.806  70.379  1.00  0.00     0.033 H 
HETATM   46  H   LIG     1     -10.752   9.761  71.561  1.00  0.00     0.033 H 
HETATM   47  H   LIG     1     -10.631  11.715  69.973  1.00  0.00     0.040 H 
ENDBRANCH  37  40
ENDBRANCH  10  37
ENDBRANCH   2  10
BRANCH   1  48
HETATM   48  N   LIG     1      -7.888  10.879  67.785  1.00  0.00    -0.307 N 
HETATM   49  C   LIG     1      -7.945  10.021  68.864  1.00  0.00     0.325 C 
HETATM   50  N   LIG     1      -8.473   8.779  68.573  1.00  0.00    -0.309 N 
HETATM   51  O   LIG     1      -7.494  10.375  69.949  1.00  0.00    -0.247 OA
HETATM   52  H   LIG     1      -8.426   8.507  67.603  1.00  0.00     0.170 HD
HETATM   53  H   LIG     1      -7.716  11.841  68.070  1.00  0.00     0.170 HD
BRANCH  50  54
HETATM   54  C   LIG     1      -8.569   7.746  69.513  1.00  0.00     0.036 A 
HETATM   55  C   LIG     1      -9.677   6.904  69.523  1.00  0.00    -0.057 A 
HETATM   56  C   LIG     1      -9.757   5.883  70.464  1.00  0.00    -0.080 A 
HETATM   57  H   LIG     1     -10.466   7.019  68.784  1.00  0.00     0.086 H 
HETATM   58  C   LIG     1      -8.737   5.715  71.402  1.00  0.00    -0.076 A 
HETATM   59  H   LIG     1     -10.619   5.222  70.471  1.00  0.00     0.083 H 
HETATM   60  C   LIG     1      -7.596   6.532  71.379  1.00  0.00    -0.052 A 
HETATM   61  H   LIG     1      -8.838   4.938  72.155  1.00  0.00     0.084 H 
HETATM   62  C   LIG     1      -7.512   7.541  70.407  1.00  0.00    -0.051 A 
HETATM   63  H   LIG     1      -6.652   8.207  70.391  1.00  0.00     0.087 H 
BRANCH  60  64
HETATM   64  C   LIG     1      -6.504   6.327  72.405  1.00  0.00    -0.017 C 
HETATM   65  H   LIG     1      -6.634   5.343  72.878  1.00  0.00     0.047 H 
HETATM   66  H   LIG     1      -5.530   6.262  71.900  1.00  0.00     0.047 H 
BRANCH  64  67
HETATM   67  C   LIG     1      -6.442   7.391  73.477  1.00  0.00    -0.054 A 
HETATM   68  C   LIG     1      -7.374   7.388  74.526  1.00  0.00    -0.075 A 
HETATM   69  C   LIG     1      -7.321   8.357  75.532  1.00  0.00    -0.060 A 
HETATM   70  H   LIG     1      -8.146   6.623  74.568  1.00  0.00     0.084 H 
HETATM   71  C   LIG     1      -6.326   9.335  75.492  1.00  0.00     0.074 A 
HETATM   72  H   LIG     1      -8.046   8.327  76.342  1.00  0.00     0.085 H 
HETATM   73  C   LIG     1      -5.394   9.359  74.451  1.00  0.00    -0.060 A 
HETATM   74  C   LIG     1      -5.453   8.389  73.449  1.00  0.00    -0.075 A 
HETATM   75  H   LIG     1      -4.618  10.120  74.426  1.00  0.00     0.085 H 
HETATM   76  H   LIG     1      -4.717   8.411  72.648  1.00  0.00     0.084 H 
BRANCH  71  77
HETATM   77  S   LIG     1      -6.196  10.513  76.803  1.00  0.00     0.239 S 
HETATM   78  O   LIG     1      -6.100   9.781  78.066  1.00  0.00    -0.206 OA
HETATM   79  O   LIG     1      -7.123  11.576  76.600  1.00  0.00    -0.206 OA
BRANCH  77  80
HETATM   80  N   LIG     1      -4.672  11.183  76.562  1.00  0.00    -0.225 NA
HETATM   81  H   LIG     1      -4.338  11.594  77.431  1.00  0.00     0.136 HD
HETATM   82  H   LIG     1      -4.725  11.851  75.790  1.00  0.00     0.136 HD
ENDBRANCH  77  80
ENDBRANCH  71  77
ENDBRANCH  64  67
ENDBRANCH  60  64
ENDBRANCH  50  54
ENDBRANCH   1  48
TORSDOF 13
ENDMDL
