MODEL 1
REMARK VINA RESULT:      -8.7      0.000      0.000
REMARK  11 active torsions:
REMARK  status: ('A' for Active; 'I' for Inactive)
REMARK    1  A    between atoms: C_1  and  C_28 
REMARK    2  A    between atoms: C_6  and  N_7 
REMARK       I    between atoms: N_7  and  C_8 
REMARK       I    between atoms: C_8  and  N_10 
REMARK    3  A    between atoms: N_10  and  C_11 
REMARK    4  A    between atoms: C_15  and  C_16 
REMARK    5  A    between atoms: C_16  and  C_17 
REMARK    6  A    between atoms: C_20  and  S_21 
REMARK    7  A    between atoms: S_21  and  N_24 
REMARK    8  A    between atoms: C_28  and  C_29 
REMARK    9  A    between atoms: C_29  and  N_30 
REMARK       I    between atoms: N_30  and  C_31 
REMARK   10  A    between atoms: C_31  and  C_33 
REMARK   11  A    between atoms: C_37  and  O_41 
ROOT
HETATM    1  C   LIG     1      -8.771  17.864  67.477  1.00  0.00    -0.027 A 
HETATM    2  C   LIG     1      -8.317  18.671  66.421  1.00  0.00    -0.058 A 
HETATM    3  C   LIG     1      -9.035  19.804  66.074  1.00  0.00     0.002 A 
HETATM    4  N   LIG     1     -10.191  20.157  66.655  1.00  0.00    -0.271 NA
HETATM    5  C   LIG     1     -10.618  19.373  67.677  1.00  0.00     0.028 A 
HETATM    6  C   LIG     1      -9.924  18.267  68.176  1.00  0.00     0.060 A 
HETATM    7  H   LIG     1      -7.415  18.429  65.870  1.00  0.00     0.086 H 
HETATM    8  H   LIG     1      -8.690  20.473  65.293  1.00  0.00     0.114 H 
HETATM    9  H   LIG     1     -11.555  19.715  68.100  1.00  0.00     0.118 H 
ENDROOT
BRANCH   6  10
HETATM   10  N   LIG     1     -10.304  17.568  69.347  1.00  0.00    -0.307 N 
HETATM   11  C   LIG     1     -11.111  16.449  69.408  1.00  0.00     0.325 C 
HETATM   12  O   LIG     1     -11.700  15.981  68.445  1.00  0.00    -0.247 OA
HETATM   13  N   LIG     1     -11.163  15.941  70.701  1.00  0.00    -0.309 N 
HETATM   14  H   LIG     1     -10.476  16.291  71.350  1.00  0.00     0.170 HD
HETATM   15  H   LIG     1     -10.133  18.031  70.223  1.00  0.00     0.170 HD
BRANCH  13  16
HETATM   16  C   LIG     1     -11.902  14.810  71.118  1.00  0.00     0.036 A 
HETATM   17  C   LIG     1     -12.786  14.843  72.199  1.00  0.00    -0.057 A 
HETATM   18  C   LIG     1     -13.553  13.735  72.529  1.00  0.00    -0.080 A 
HETATM   19  H   LIG     1     -12.932  15.730  72.804  1.00  0.00     0.086 H 
HETATM   20  C   LIG     1     -13.424  12.563  71.802  1.00  0.00    -0.076 A 
HETATM   21  H   LIG     1     -14.262  13.796  73.349  1.00  0.00     0.083 H 
HETATM   22  C   LIG     1     -12.517  12.472  70.736  1.00  0.00    -0.052 A 
HETATM   23  H   LIG     1     -14.051  11.725  72.088  1.00  0.00     0.084 H 
HETATM   24  C   LIG     1     -11.757  13.612  70.401  1.00  0.00    -0.051 A 
HETATM   25  H   LIG     1     -11.056  13.555  69.571  1.00  0.00     0.087 H 
BRANCH  22  26
HETATM   26  C   LIG     1     -12.348  11.193  69.941  1.00  0.00    -0.017 C 
HETATM   27  H   LIG     1     -11.653  11.379  69.112  1.00  0.00     0.047 H 
HETATM   28  H   LIG     1     -13.311  10.929  69.484  1.00  0.00     0.047 H 
BRANCH  26  29
HETATM   29  C   LIG     1     -11.848   9.994  70.728  1.00  0.00    -0.054 A 
HETATM   30  C   LIG     1     -12.735   9.249  71.521  1.00  0.00    -0.075 A 
HETATM   31  C   LIG     1     -12.277   8.160  72.265  1.00  0.00    -0.060 A 
HETATM   32  H   LIG     1     -13.788   9.521  71.569  1.00  0.00     0.084 H 
HETATM   33  C   LIG     1     -10.920   7.823  72.224  1.00  0.00     0.074 A 
HETATM   34  H   LIG     1     -12.978   7.576  72.856  1.00  0.00     0.085 H 
HETATM   35  C   LIG     1     -10.020   8.576  71.466  1.00  0.00    -0.060 A 
HETATM   36  C   LIG     1     -10.483   9.664  70.728  1.00  0.00    -0.075 A 
HETATM   37  H   LIG     1      -8.963   8.315  71.435  1.00  0.00     0.085 H 
HETATM   38  H   LIG     1      -9.775  10.261  70.155  1.00  0.00     0.084 H 
BRANCH  33  39
HETATM   39  S   LIG     1     -10.336   6.397  73.101  1.00  0.00     0.239 S 
HETATM   40  O   LIG     1      -9.314   5.753  72.282  1.00  0.00    -0.206 OA
HETATM   41  O   LIG     1     -10.113   6.753  74.467  1.00  0.00    -0.206 OA
BRANCH  39  42
HETATM   42  N   LIG     1     -11.693   5.405  73.088  1.00  0.00    -0.225 NA
HETATM   43  H   LIG     1     -11.516   4.470  73.457  1.00  0.00     0.136 HD
HETATM   44  H   LIG     1     -12.071   5.382  72.141  1.00  0.00     0.136 HD
ENDBRANCH  39  42
ENDBRANCH  33  39
ENDBRANCH  26  29
ENDBRANCH  22  26
ENDBRANCH  13  16
ENDBRANCH   6  10
BRANCH   1  45
HETATM   45  C   LIG     1      -8.009  16.592  67.788  1.00  0.00    -0.024 C 
HETATM   46  H   LIG     1      -8.344  16.216  68.763  1.00  0.00     0.042 H 
HETATM   47  H   LIG     1      -6.944  16.828  67.913  1.00  0.00     0.042 H 
BRANCH  45  48
HETATM   48  C   LIG     1      -8.122  15.473  66.739  1.00  0.00    -0.001 C 
HETATM   49  H   LIG     1      -7.370  14.692  66.885  1.00  0.00     0.064 H 
HETATM   50  H   LIG     1      -7.942  15.905  65.747  1.00  0.00     0.064 H 
BRANCH  48  51
HETATM   51  N   LIG     1      -9.437  14.866  66.681  1.00  0.00    -0.360 N 
HETATM   52  C   LIG     1      -9.640  13.501  66.760  1.00  0.00     0.221 C 
HETATM   53  O   LIG     1      -8.716  12.698  66.843  1.00  0.00    -0.273 OA
HETATM   54  H   LIG     1     -10.235  15.483  66.653  1.00  0.00     0.162 HD
BRANCH  52  55
HETATM   55  C   LIG     1     -11.102  13.070  66.589  1.00  0.00     0.024 C 
HETATM   56  H   LIG     1     -11.507  13.109  67.610  1.00  0.00     0.054 H 
HETATM   57  C   LIG     1     -11.923  14.063  65.749  1.00  0.00    -0.051 C 
HETATM   58  C   LIG     1     -11.700  13.931  64.239  1.00  0.00    -0.040 C 
HETATM   59  H   LIG     1     -11.718  15.097  66.052  1.00  0.00     0.034 H 
HETATM   60  H   LIG     1     -12.986  13.889  65.957  1.00  0.00     0.034 H 
HETATM   61  C   LIG     1     -11.856  12.496  63.745  1.00  0.00     0.035 C 
HETATM   62  H   LIG     1     -10.703  14.303  63.977  1.00  0.00     0.036 H 
HETATM   63  H   LIG     1     -12.429  14.573  63.730  1.00  0.00     0.036 H 
HETATM   64  H   LIG     1     -11.562  12.425  62.693  1.00  0.00     0.082 H 
HETATM   65  C   LIG     1     -11.031  11.510  64.567  1.00  0.00    -0.040 C 
HETATM   66  C   LIG     1     -11.279  11.638  66.067  1.00  0.00    -0.051 C 
HETATM   67  H   LIG     1      -9.966  11.659  64.359  1.00  0.00     0.036 H 
HETATM   68  H   LIG     1     -11.281  10.483  64.270  1.00  0.00     0.036 H 
HETATM   69  H   LIG     1     -10.629  10.927  66.586  1.00  0.00     0.034 H 
HETATM   70  H   LIG     1     -12.304  11.316  66.291  1.00  0.00     0.034 H 
BRANCH  61  71
HETATM   71  O   LIG     1     -13.226  12.110  63.826  1.00  0.00    -0.396 OA
HETATM   72  H   LIG     1     -13.293  11.433  64.525  1.00  0.00     0.210 HD
ENDBRANCH  61  71
ENDBRANCH  52  55
ENDBRANCH  48  51
ENDBRANCH  45  48
ENDBRANCH   1  45
TORSDOF 11
ENDMDL
MODEL 2
REMARK VINA RESULT:      -6.1      5.193      8.402
REMARK  11 active torsions:
REMARK  status: ('A' for Active; 'I' for Inactive)
REMARK    1  A    between atoms: C_1  and  C_28 
REMARK    2  A    between atoms: C_6  and  N_7 
REMARK       I    between atoms: N_7  and  C_8 
REMARK       I    between atoms: C_8  and  N_10 
REMARK    3  A    between atoms: N_10  and  C_11 
REMARK    4  A    between atoms: C_15  and  C_16 
REMARK    5  A    between atoms: C_16  and  C_17 
REMARK    6  A    between atoms: C_20  and  S_21 
REMARK    7  A    between atoms: S_21  and  N_24 
REMARK    8  A    between atoms: C_28  and  C_29 
REMARK    9  A    between atoms: C_29  and  N_30 
REMARK       I    between atoms: N_30  and  C_31 
REMARK   10  A    between atoms: C_31  and  C_33 
REMARK   11  A    between atoms: C_37  and  O_41 
ROOT
HETATM    1  C   LIG     1      -9.920   9.714  66.136  1.00  0.00    -0.027 A 
HETATM    2  C   LIG     1     -10.178  10.382  64.927  1.00  0.00    -0.058 A 
HETATM    3  C   LIG     1      -9.350  10.163  63.838  1.00  0.00     0.002 A 
HETATM    4  N   LIG     1      -8.261   9.382  63.879  1.00  0.00    -0.271 NA
HETATM    5  C   LIG     1      -8.024   8.737  65.050  1.00  0.00     0.028 A 
HETATM    6  C   LIG     1      -8.846   8.806  66.178  1.00  0.00     0.060 A 
HETATM    7  H   LIG     1     -11.013  11.067  64.826  1.00  0.00     0.086 H 
HETATM    8  H   LIG     1      -9.546  10.629  62.878  1.00  0.00     0.114 H 
HETATM    9  H   LIG     1      -7.130   8.124  65.014  1.00  0.00     0.118 H 
ENDROOT
BRANCH   6  10
HETATM   10  N   LIG     1      -8.669   7.995  67.325  1.00  0.00    -0.307 N 
HETATM   11  C   LIG     1      -9.149   6.713  67.505  1.00  0.00     0.325 C 
HETATM   12  O   LIG     1      -9.901   6.152  66.721  1.00  0.00    -0.247 OA
HETATM   13  N   LIG     1      -8.672   6.162  68.687  1.00  0.00    -0.309 N 
HETATM   14  H   LIG     1      -7.905   6.643  69.131  1.00  0.00     0.170 HD
HETATM   15  H   LIG     1      -8.329   8.453  68.153  1.00  0.00     0.170 HD
BRANCH  13  16
HETATM   16  C   LIG     1      -8.973   4.872  69.182  1.00  0.00     0.036 A 
HETATM   17  C   LIG     1      -8.728   3.707  68.451  1.00  0.00    -0.057 A 
HETATM   18  C   LIG     1      -8.963   2.455  69.000  1.00  0.00    -0.080 A 
HETATM   19  H   LIG     1      -8.323   3.726  67.446  1.00  0.00     0.086 H 
HETATM   20  C   LIG     1      -9.480   2.348  70.281  1.00  0.00    -0.076 A 
HETATM   21  H   LIG     1      -8.729   1.563  68.427  1.00  0.00     0.083 H 
HETATM   22  C   LIG     1      -9.782   3.491  71.034  1.00  0.00    -0.052 A 
HETATM   23  H   LIG     1      -9.639   1.349  70.675  1.00  0.00     0.084 H 
HETATM   24  C   LIG     1      -9.521   4.757  70.469  1.00  0.00    -0.051 A 
HETATM   25  H   LIG     1      -9.744   5.651  71.048  1.00  0.00     0.087 H 
BRANCH  22  26
HETATM   26  C   LIG     1     -10.366   3.395  72.429  1.00  0.00    -0.017 C 
HETATM   27  H   LIG     1     -10.355   2.344  72.747  1.00  0.00     0.047 H 
HETATM   28  H   LIG     1     -11.422   3.695  72.393  1.00  0.00     0.047 H 
BRANCH  26  29
HETATM   29  C   LIG     1      -9.668   4.226  73.491  1.00  0.00    -0.054 A 
HETATM   30  C   LIG     1      -8.307   4.022  73.766  1.00  0.00    -0.075 A 
HETATM   31  C   LIG     1      -7.665   4.768  74.758  1.00  0.00    -0.060 A 
HETATM   32  H   LIG     1      -7.742   3.274  73.213  1.00  0.00     0.084 H 
HETATM   33  C   LIG     1      -8.395   5.713  75.486  1.00  0.00     0.074 A 
HETATM   34  H   LIG     1      -6.605   4.617  74.945  1.00  0.00     0.085 H 
HETATM   35  C   LIG     1      -9.757   5.902  75.246  1.00  0.00    -0.060 A 
HETATM   36  C   LIG     1     -10.393   5.153  74.257  1.00  0.00    -0.075 A 
HETATM   37  H   LIG     1     -10.326   6.637  75.814  1.00  0.00     0.085 H 
HETATM   38  H   LIG     1     -11.461   5.289  74.088  1.00  0.00     0.084 H 
BRANCH  33  39
HETATM   39  S   LIG     1      -7.578   6.721  76.694  1.00  0.00     0.239 S 
HETATM   40  O   LIG     1      -8.321   6.615  77.945  1.00  0.00    -0.206 OA
HETATM   41  O   LIG     1      -6.170   6.487  76.615  1.00  0.00    -0.206 OA
BRANCH  39  42
HETATM   42  N   LIG     1      -7.834   8.266  76.083  1.00  0.00    -0.225 NA
HETATM   43  H   LIG     1      -7.060   8.612  75.514  1.00  0.00     0.136 HD
HETATM   44  H   LIG     1      -8.053   8.891  76.859  1.00  0.00     0.136 HD
ENDBRANCH  39  42
ENDBRANCH  33  39
ENDBRANCH  26  29
ENDBRANCH  22  26
ENDBRANCH  13  16
ENDBRANCH   6  10
BRANCH   1  45
HETATM   45  C   LIG     1     -10.795  10.027  67.331  1.00  0.00    -0.024 C 
HETATM   46  H   LIG     1     -11.238   9.091  67.692  1.00  0.00     0.042 H 
HETATM   47  H   LIG     1     -11.641  10.649  67.009  1.00  0.00     0.042 H 
BRANCH  45  48
HETATM   48  C   LIG     1     -10.099  10.750  68.497  1.00  0.00    -0.001 C 
HETATM   49  H   LIG     1     -10.006  11.825  68.320  1.00  0.00     0.064 H 
HETATM   50  H   LIG     1      -9.079  10.355  68.593  1.00  0.00     0.064 H 
BRANCH  48  51
HETATM   51  N   LIG     1     -10.739  10.530  69.778  1.00  0.00    -0.360 N 
HETATM   52  C   LIG     1     -10.538   9.390  70.534  1.00  0.00     0.221 C 
HETATM   53  O   LIG     1      -9.833   8.461  70.155  1.00  0.00    -0.273 OA
HETATM   54  H   LIG     1     -11.299  11.280  70.155  1.00  0.00     0.162 HD
BRANCH  52  55
HETATM   55  C   LIG     1     -11.383   9.324  71.812  1.00  0.00     0.024 C 
HETATM   56  H   LIG     1     -10.773   9.855  72.556  1.00  0.00     0.054 H 
HETATM   57  C   LIG     1     -12.708  10.097  71.693  1.00  0.00    -0.051 C 
HETATM   58  C   LIG     1     -13.798   9.344  70.925  1.00  0.00    -0.040 C 
HETATM   59  H   LIG     1     -12.550  11.076  71.224  1.00  0.00     0.034 H 
HETATM   60  H   LIG     1     -13.077  10.300  72.707  1.00  0.00     0.034 H 
HETATM   61  C   LIG     1     -14.007   7.923  71.442  1.00  0.00     0.035 C 
HETATM   62  H   LIG     1     -13.548   9.313  69.859  1.00  0.00     0.036 H 
HETATM   63  H   LIG     1     -14.734   9.908  71.022  1.00  0.00     0.036 H 
HETATM   64  H   LIG     1     -14.697   7.381  70.787  1.00  0.00     0.082 H 
HETATM   65  C   LIG     1     -12.697   7.148  71.547  1.00  0.00    -0.040 C 
HETATM   66  C   LIG     1     -11.627   7.902  72.333  1.00  0.00    -0.051 C 
HETATM   67  H   LIG     1     -12.322   6.924  70.544  1.00  0.00     0.036 H 
HETATM   68  H   LIG     1     -12.875   6.191  72.053  1.00  0.00     0.036 H 
HETATM   69  H   LIG     1     -10.713   7.301  72.334  1.00  0.00     0.034 H 
HETATM   70  H   LIG     1     -11.934   7.970  73.385  1.00  0.00     0.034 H 
BRANCH  61  71
HETATM   71  O   LIG     1     -14.605   7.970  72.737  1.00  0.00    -0.396 OA
HETATM   72  H   LIG     1     -15.535   8.233  72.614  1.00  0.00     0.210 HD
ENDBRANCH  61  71
ENDBRANCH  52  55
ENDBRANCH  48  51
ENDBRANCH  45  48
ENDBRANCH   1  45
TORSDOF 11
ENDMDL
MODEL 3
REMARK VINA RESULT:      -5.7      5.150      8.696
REMARK  11 active torsions:
REMARK  status: ('A' for Active; 'I' for Inactive)
REMARK    1  A    between atoms: C_1  and  C_28 
REMARK    2  A    between atoms: C_6  and  N_7 
REMARK       I    between atoms: N_7  and  C_8 
REMARK       I    between atoms: C_8  and  N_10 
REMARK    3  A    between atoms: N_10  and  C_11 
REMARK    4  A    between atoms: C_15  and  C_16 
REMARK    5  A    between atoms: C_16  and  C_17 
REMARK    6  A    between atoms: C_20  and  S_21 
REMARK    7  A    between atoms: S_21  and  N_24 
REMARK    8  A    between atoms: C_28  and  C_29 
REMARK    9  A    between atoms: C_29  and  N_30 
REMARK       I    between atoms: N_30  and  C_31 
REMARK   10  A    between atoms: C_31  and  C_33 
REMARK   11  A    between atoms: C_37  and  O_41 
ROOT
HETATM    1  C   LIG     1     -10.077  10.008  65.960  1.00  0.00    -0.027 A 
HETATM    2  C   LIG     1     -10.484  10.831  64.897  1.00  0.00    -0.058 A 
HETATM    3  C   LIG     1      -9.837  10.737  63.676  1.00  0.00     0.002 A 
HETATM    4  N   LIG     1      -8.787   9.934  63.453  1.00  0.00    -0.271 NA
HETATM    5  C   LIG     1      -8.405   9.139  64.484  1.00  0.00     0.028 A 
HETATM    6  C   LIG     1      -9.047   9.079  65.724  1.00  0.00     0.060 A 
HETATM    7  H   LIG     1     -11.296  11.542  65.010  1.00  0.00     0.086 H 
HETATM    8  H   LIG     1     -10.154  11.327  62.823  1.00  0.00     0.114 H 
HETATM    9  H   LIG     1      -7.552   8.516  64.236  1.00  0.00     0.118 H 
ENDROOT
BRANCH   6  10
HETATM   10  N   LIG     1      -8.734   8.123  66.722  1.00  0.00    -0.307 N 
HETATM   11  C   LIG     1      -8.660   6.755  66.550  1.00  0.00     0.325 C 
HETATM   12  O   LIG     1      -8.976   6.180  65.519  1.00  0.00    -0.247 OA
HETATM   13  N   LIG     1      -8.192   6.133  67.701  1.00  0.00    -0.309 N 
HETATM   14  H   LIG     1      -7.776   6.730  68.398  1.00  0.00     0.170 HD
HETATM   15  H   LIG     1      -8.751   8.444  67.674  1.00  0.00     0.170 HD
BRANCH  13  16
HETATM   16  C   LIG     1      -8.006   4.742  67.874  1.00  0.00     0.036 A 
HETATM   17  C   LIG     1      -7.120   3.997  67.092  1.00  0.00    -0.057 A 
HETATM   18  C   LIG     1      -6.904   2.649  67.343  1.00  0.00    -0.080 A 
HETATM   19  H   LIG     1      -6.548   4.435  66.283  1.00  0.00     0.086 H 
HETATM   20  C   LIG     1      -7.598   2.015  68.361  1.00  0.00    -0.076 A 
HETATM   21  H   LIG     1      -6.182   2.099  66.746  1.00  0.00     0.083 H 
HETATM   22  C   LIG     1      -8.528   2.715  69.142  1.00  0.00    -0.052 A 
HETATM   23  H   LIG     1      -7.391   0.964  68.528  1.00  0.00     0.084 H 
HETATM   24  C   LIG     1      -8.724   4.088  68.887  1.00  0.00    -0.051 A 
HETATM   25  H   LIG     1      -9.438   4.642  69.492  1.00  0.00     0.087 H 
BRANCH  22  26
HETATM   26  C   LIG     1      -9.311   2.035  70.248  1.00  0.00    -0.017 C 
HETATM   27  H   LIG     1      -8.928   1.013  70.377  1.00  0.00     0.047 H 
HETATM   28  H   LIG     1     -10.357   1.934  69.931  1.00  0.00     0.047 H 
BRANCH  26  29
HETATM   29  C   LIG     1      -9.283   2.733  71.596  1.00  0.00    -0.054 A 
HETATM   30  C   LIG     1      -8.088   3.292  72.077  1.00  0.00    -0.075 A 
HETATM   31  C   LIG     1      -8.051   3.916  73.326  1.00  0.00    -0.060 A 
HETATM   32  H   LIG     1      -7.178   3.237  71.483  1.00  0.00     0.084 H 
HETATM   33  C   LIG     1      -9.214   3.968  74.102  1.00  0.00     0.074 A 
HETATM   34  H   LIG     1      -7.126   4.366  73.677  1.00  0.00     0.085 H 
HETATM   35  C   LIG     1     -10.400   3.386  73.650  1.00  0.00    -0.060 A 
HETATM   36  C   LIG     1     -10.431   2.762  72.404  1.00  0.00    -0.075 A 
HETATM   37  H   LIG     1     -11.306   3.425  74.255  1.00  0.00     0.085 H 
HETATM   38  H   LIG     1     -11.352   2.292  72.065  1.00  0.00     0.084 H 
BRANCH  33  39
HETATM   39  S   LIG     1      -9.202   4.823  75.655  1.00  0.00     0.239 S 
HETATM   40  O   LIG     1     -10.098   4.115  76.565  1.00  0.00    -0.206 OA
HETATM   41  O   LIG     1      -7.852   5.139  75.999  1.00  0.00    -0.206 OA
BRANCH  39  42
HETATM   42  N   LIG     1      -9.940   6.279  75.253  1.00  0.00    -0.225 NA
HETATM   43  H   LIG     1      -9.277   7.022  75.028  1.00  0.00     0.136 HD
HETATM   44  H   LIG     1     -10.575   6.542  76.006  1.00  0.00     0.136 HD
ENDBRANCH  39  42
ENDBRANCH  33  39
ENDBRANCH  26  29
ENDBRANCH  22  26
ENDBRANCH  13  16
ENDBRANCH   6  10
BRANCH   1  45
HETATM   45  C   LIG     1     -10.751  10.183  67.305  1.00  0.00    -0.024 C 
HETATM   46  H   LIG     1     -11.065   9.197  67.667  1.00  0.00     0.042 H 
HETATM   47  H   LIG     1     -11.676  10.759  67.175  1.00  0.00     0.042 H 
BRANCH  45  48
HETATM   48  C   LIG     1      -9.910  10.884  68.386  1.00  0.00    -0.001 C 
HETATM   49  H   LIG     1     -10.101  11.960  68.424  1.00  0.00     0.064 H 
HETATM   50  H   LIG     1      -8.848  10.759  68.138  1.00  0.00     0.064 H 
BRANCH  48  51
HETATM   51  N   LIG     1     -10.085  10.320  69.709  1.00  0.00    -0.360 N 
HETATM   52  C   LIG     1      -9.324   9.270  70.187  1.00  0.00     0.221 C 
HETATM   53  O   LIG     1      -8.468   8.711  69.508  1.00  0.00    -0.273 OA
HETATM   54  H   LIG     1     -10.749  10.768  70.323  1.00  0.00     0.162 HD
BRANCH  52  55
HETATM   55  C   LIG     1      -9.736   8.773  71.578  1.00  0.00     0.024 C 
HETATM   56  H   LIG     1      -9.178   9.424  72.265  1.00  0.00     0.054 H 
HETATM   57  C   LIG     1     -11.229   8.996  71.873  1.00  0.00    -0.051 C 
HETATM   58  C   LIG     1     -12.152   7.962  71.221  1.00  0.00    -0.040 C 
HETATM   59  H   LIG     1     -11.544  10.001  71.565  1.00  0.00     0.034 H 
HETATM   60  H   LIG     1     -11.373   8.951  72.960  1.00  0.00     0.034 H 
HETATM   61  C   LIG     1     -11.720   6.526  71.506  1.00  0.00     0.035 C 
HETATM   62  H   LIG     1     -12.189   8.126  70.138  1.00  0.00     0.036 H 
HETATM   63  H   LIG     1     -13.167   8.120  71.606  1.00  0.00     0.036 H 
HETATM   64  H   LIG     1     -12.324   5.827  70.918  1.00  0.00     0.082 H 
HETATM   65  C   LIG     1     -10.242   6.297  71.199  1.00  0.00    -0.040 C 
HETATM   66  C   LIG     1      -9.334   7.322  71.873  1.00  0.00    -0.051 C 
HETATM   67  H   LIG     1     -10.083   6.324  70.117  1.00  0.00     0.036 H 
HETATM   68  H   LIG     1      -9.944   5.301  71.550  1.00  0.00     0.036 H 
HETATM   69  H   LIG     1      -8.301   7.114  71.578  1.00  0.00     0.034 H 
HETATM   70  H   LIG     1      -9.365   7.172  72.959  1.00  0.00     0.034 H 
BRANCH  61  71
HETATM   71  O   LIG     1     -11.944   6.225  72.881  1.00  0.00    -0.396 OA
HETATM   72  H   LIG     1     -11.821   5.264  72.989  1.00  0.00     0.210 HD
ENDBRANCH  61  71
ENDBRANCH  52  55
ENDBRANCH  48  51
ENDBRANCH  45  48
ENDBRANCH   1  45
TORSDOF 11
ENDMDL
