MODEL 1
REMARK VINA RESULT:      -7.8      0.000      0.000
REMARK  13 active torsions:
REMARK  status: ('A' for Active; 'I' for Inactive)
REMARK    1  A    between atoms: N_1  and  S_2 
REMARK    2  A    between atoms: S_2  and  C_5 
REMARK    3  A    between atoms: C_8  and  C_9 
REMARK    4  A    between atoms: C_9  and  C_10 
REMARK    5  A    between atoms: C_14  and  N_15 
REMARK       I    between atoms: N_15  and  C_16 
REMARK    6  A    between atoms: C_16  and  C_18 
REMARK    7  A    between atoms: C_18  and  S_19 
REMARK    8  A    between atoms: C_18  and  C_20 
REMARK    9  A    between atoms: C_22  and  C_23 
REMARK   10  A    between atoms: C_23  and  C_24 
REMARK   11  A    between atoms: C_24  and  N_25 
REMARK       I    between atoms: N_25  and  C_26 
REMARK   12  A    between atoms: C_26  and  C_28 
REMARK   13  A    between atoms: C_31  and  O_32 
ROOT
HETATM    1  C   LIG     1     -11.983   8.111  72.044  1.00  0.00    -0.018 A 
HETATM    2  C   LIG     1     -10.656   8.562  72.045  1.00  0.00    -0.066 A 
HETATM    3  C   LIG     1      -9.594   7.668  71.839  1.00  0.00    -0.038 A 
HETATM    4  C   LIG     1      -9.916   6.329  71.654  1.00  0.00     0.008 A 
HETATM    5  N   LIG     1     -11.182   5.855  71.633  1.00  0.00    -0.272 NA
HETATM    6  C   LIG     1     -12.177   6.752  71.793  1.00  0.00     0.009 A 
HETATM    7  H   LIG     1     -10.426   9.619  72.164  1.00  0.00     0.085 H 
HETATM    8  H   LIG     1      -9.153   5.574  71.477  1.00  0.00     0.115 H 
HETATM    9  H   LIG     1     -13.178   6.333  71.700  1.00  0.00     0.115 H 
ENDROOT
BRANCH   1  10
HETATM   10  C   LIG     1     -13.212   8.981  72.237  1.00  0.00     0.092 C 
HETATM   11  H   LIG     1     -13.303   9.167  73.314  1.00  0.00     0.078 H 
BRANCH  10  12
HETATM   12  C   LIG     1     -13.082  10.346  71.539  1.00  0.00     0.240 C 
HETATM   13  N   LIG     1     -13.423  11.434  72.335  1.00  0.00    -0.326 N 
HETATM   14  H   LIG     1     -14.166  11.266  73.004  1.00  0.00     0.169 HD
HETATM   15  O   LIG     1     -12.754  10.427  70.356  1.00  0.00    -0.272 OA
BRANCH  13  16
HETATM   16  C   LIG     1     -13.266  12.762  71.894  1.00  0.00     0.035 C 
HETATM   17  C   LIG     1     -14.083  13.786  72.374  1.00  0.00    -0.057 C 
HETATM   18  C   LIG     1     -14.024  15.043  71.779  1.00  0.00    -0.080 C 
HETATM   19  H   LIG     1     -14.821  13.611  73.153  1.00  0.00     0.086 H 
HETATM   20  C   LIG     1     -13.109  15.286  70.754  1.00  0.00    -0.076 C 
HETATM   21  H   LIG     1     -14.708  15.824  72.104  1.00  0.00     0.083 H 
HETATM   22  C   LIG     1     -12.160  14.323  70.375  1.00  0.00    -0.052 C 
HETATM   23  H   LIG     1     -13.155  16.247  70.253  1.00  0.00     0.084 H 
HETATM   24  C   LIG     1     -12.305  13.029  70.908  1.00  0.00    -0.051 C 
HETATM   25  H   LIG     1     -11.646  12.228  70.585  1.00  0.00     0.087 H 
BRANCH  22  26
HETATM   26  C   LIG     1     -11.036  14.657  69.399  1.00  0.00    -0.017 C 
HETATM   27  H   LIG     1     -10.926  15.749  69.342  1.00  0.00     0.047 H 
HETATM   28  H   LIG     1     -10.084  14.293  69.808  1.00  0.00     0.047 H 
BRANCH  26  29
HETATM   29  C   LIG     1     -11.201  14.117  67.979  1.00  0.00    -0.054 A 
HETATM   30  C   LIG     1     -10.231  13.275  67.397  1.00  0.00    -0.075 A 
HETATM   31  C   LIG     1     -10.392  12.779  66.094  1.00  0.00    -0.060 A 
HETATM   32  H   LIG     1      -9.349  12.980  67.962  1.00  0.00     0.084 H 
HETATM   33  C   LIG     1     -11.510  13.151  65.348  1.00  0.00     0.074 A 
HETATM   34  H   LIG     1      -9.644  12.109  65.671  1.00  0.00     0.085 H 
HETATM   35  C   LIG     1     -12.491  13.960  65.909  1.00  0.00    -0.060 A 
HETATM   36  C   LIG     1     -12.350  14.409  67.226  1.00  0.00    -0.075 A 
HETATM   37  H   LIG     1     -13.375  14.243  65.340  1.00  0.00     0.085 H 
HETATM   38  H   LIG     1     -13.161  14.985  67.655  1.00  0.00     0.084 H 
BRANCH  33  39
HETATM   39  S   LIG     1     -11.731  12.565  63.688  1.00  0.00     0.239 S 
HETATM   40  O   LIG     1     -12.729  11.525  63.692  1.00  0.00    -0.206 OA
HETATM   41  O   LIG     1     -10.423  12.377  63.094  1.00  0.00    -0.206 OA
BRANCH  39  42
HETATM   42  N   LIG     1     -12.426  13.916  62.961  1.00  0.00    -0.225 NA
HETATM   43  H   LIG     1     -13.171  13.624  62.328  1.00  0.00     0.136 HD
HETATM   44  H   LIG     1     -12.693  14.671  63.597  1.00  0.00     0.136 HD
ENDBRANCH  39  42
ENDBRANCH  33  39
ENDBRANCH  26  29
ENDBRANCH  22  26
ENDBRANCH  13  16
ENDBRANCH  10  12
BRANCH  10  45
HETATM   45  S   LIG     1     -14.804   8.254  71.703  1.00  0.00    -0.163 SA
HETATM   46  H   LIG     1     -15.511   8.717  72.745  1.00  0.00     0.102 HD
ENDBRANCH  10  45
ENDBRANCH   1  10
BRANCH   3  47
HETATM   47  C   LIG     1      -8.179   8.167  71.733  1.00  0.00    -0.025 C 
HETATM   48  H   LIG     1      -7.491   7.311  71.769  1.00  0.00     0.042 H 
HETATM   49  H   LIG     1      -7.945   8.756  72.630  1.00  0.00     0.042 H 
BRANCH  47  50
HETATM   50  C   LIG     1      -7.864   8.987  70.484  1.00  0.00    -0.001 C 
HETATM   51  H   LIG     1      -6.788   9.020  70.281  1.00  0.00     0.064 H 
HETATM   52  H   LIG     1      -8.215  10.020  70.588  1.00  0.00     0.064 H 
BRANCH  50  53
HETATM   53  N   LIG     1      -8.522   8.408  69.326  1.00  0.00    -0.360 N 
HETATM   54  C   LIG     1      -9.434   9.106  68.568  1.00  0.00     0.221 C 
HETATM   55  O   LIG     1      -9.746  10.266  68.814  1.00  0.00    -0.273 OA
HETATM   56  H   LIG     1      -8.278   7.468  69.042  1.00  0.00     0.162 HD
BRANCH  54  57
HETATM   57  C   LIG     1      -9.979   8.303  67.380  1.00  0.00     0.024 C 
HETATM   58  C   LIG     1     -10.156   9.167  66.123  1.00  0.00    -0.051 C 
HETATM   59  C   LIG     1      -8.814   9.571  65.509  1.00  0.00    -0.040 C 
HETATM   60  H   LIG     1     -10.736  10.071  66.334  1.00  0.00     0.034 H 
HETATM   61  H   LIG     1     -10.737   8.600  65.385  1.00  0.00     0.034 H 
HETATM   62  C   LIG     1      -7.922   8.366  65.220  1.00  0.00     0.035 C 
HETATM   63  H   LIG     1      -8.297  10.259  66.189  1.00  0.00     0.036 H 
HETATM   64  H   LIG     1      -9.012  10.120  64.579  1.00  0.00     0.036 H 
HETATM   65  C   LIG     1      -7.775   7.437  66.423  1.00  0.00    -0.040 C 
HETATM   66  H   LIG     1      -6.935   8.720  64.901  1.00  0.00     0.082 H 
HETATM   67  C   LIG     1      -9.119   7.075  67.062  1.00  0.00    -0.051 C 
HETATM   68  H   LIG     1      -7.130   7.913  67.168  1.00  0.00     0.036 H 
HETATM   69  H   LIG     1      -7.279   6.506  66.119  1.00  0.00     0.036 H 
HETATM   70  H   LIG     1      -8.944   6.484  67.969  1.00  0.00     0.034 H 
HETATM   71  H   LIG     1      -9.679   6.428  66.372  1.00  0.00     0.034 H 
HETATM   72  H   LIG     1     -10.968   7.945  67.698  1.00  0.00     0.054 H 
BRANCH  62  73
HETATM   73  O   LIG     1      -8.487   7.637  64.134  1.00  0.00    -0.396 OA
HETATM   74  H   LIG     1      -8.607   8.267  63.400  1.00  0.00     0.210 HD
ENDBRANCH  62  73
ENDBRANCH  54  57
ENDBRANCH  50  53
ENDBRANCH  47  50
ENDBRANCH   3  47
TORSDOF 13
ENDMDL
MODEL 2
REMARK VINA RESULT:      -7.4      6.068      9.936
REMARK  13 active torsions:
REMARK  status: ('A' for Active; 'I' for Inactive)
REMARK    1  A    between atoms: N_1  and  S_2 
REMARK    2  A    between atoms: S_2  and  C_5 
REMARK    3  A    between atoms: C_8  and  C_9 
REMARK    4  A    between atoms: C_9  and  C_10 
REMARK    5  A    between atoms: C_14  and  N_15 
REMARK       I    between atoms: N_15  and  C_16 
REMARK    6  A    between atoms: C_16  and  C_18 
REMARK    7  A    between atoms: C_18  and  S_19 
REMARK    8  A    between atoms: C_18  and  C_20 
REMARK    9  A    between atoms: C_22  and  C_23 
REMARK   10  A    between atoms: C_23  and  C_24 
REMARK   11  A    between atoms: C_24  and  N_25 
REMARK       I    between atoms: N_25  and  C_26 
REMARK   12  A    between atoms: C_26  and  C_28 
REMARK   13  A    between atoms: C_31  and  O_32 
ROOT
HETATM    1  C   LIG     1      -7.950  18.020  68.098  1.00  0.00    -0.018 A 
HETATM    2  C   LIG     1      -7.246  18.964  68.860  1.00  0.00    -0.066 A 
HETATM    3  C   LIG     1      -6.208  18.565  69.715  1.00  0.00    -0.038 A 
HETATM    4  C   LIG     1      -5.925  17.207  69.783  1.00  0.00     0.008 A 
HETATM    5  N   LIG     1      -6.570  16.266  69.057  1.00  0.00    -0.272 NA
HETATM    6  C   LIG     1      -7.533  16.693  68.215  1.00  0.00     0.009 A 
HETATM    7  H   LIG     1      -7.464  20.026  68.771  1.00  0.00     0.085 H 
HETATM    8  H   LIG     1      -5.129  16.817  70.413  1.00  0.00     0.115 H 
HETATM    9  H   LIG     1      -7.975  15.907  67.602  1.00  0.00     0.115 H 
ENDROOT
BRANCH   1  10
HETATM   10  C   LIG     1      -9.075  18.330  67.127  1.00  0.00     0.092 C 
HETATM   11  H   LIG     1      -8.606  18.587  66.170  1.00  0.00     0.078 H 
BRANCH  10  12
HETATM   12  C   LIG     1      -9.994  17.120  66.885  1.00  0.00     0.240 C 
HETATM   13  N   LIG     1      -9.775  16.463  65.679  1.00  0.00    -0.326 N 
HETATM   14  H   LIG     1      -9.490  17.056  64.908  1.00  0.00     0.169 HD
HETATM   15  O   LIG     1     -10.877  16.821  67.689  1.00  0.00    -0.272 OA
BRANCH  13  16
HETATM   16  C   LIG     1     -10.453  15.277  65.340  1.00  0.00     0.035 C 
HETATM   17  C   LIG     1     -11.604  15.302  64.551  1.00  0.00    -0.057 C 
HETATM   18  C   LIG     1     -12.350  14.138  64.394  1.00  0.00    -0.080 C 
HETATM   19  H   LIG     1     -11.978  16.224  64.114  1.00  0.00     0.086 H 
HETATM   20  C   LIG     1     -11.910  12.945  64.972  1.00  0.00    -0.076 C 
HETATM   21  H   LIG     1     -13.285  14.168  63.837  1.00  0.00     0.083 H 
HETATM   22  C   LIG     1     -10.668  12.860  65.622  1.00  0.00    -0.052 C 
HETATM   23  H   LIG     1     -12.563  12.081  64.907  1.00  0.00     0.084 H 
HETATM   24  C   LIG     1      -9.983  14.064  65.864  1.00  0.00    -0.051 C 
HETATM   25  H   LIG     1      -9.057  14.061  66.434  1.00  0.00     0.087 H 
BRANCH  22  26
HETATM   26  C   LIG     1     -10.100  11.519  66.075  1.00  0.00    -0.017 C 
HETATM   27  H   LIG     1     -10.307  10.765  65.303  1.00  0.00     0.047 H 
HETATM   28  H   LIG     1      -9.005  11.589  66.124  1.00  0.00     0.047 H 
BRANCH  26  29
HETATM   29  C   LIG     1     -10.619  10.991  67.412  1.00  0.00    -0.054 A 
HETATM   30  C   LIG     1     -11.349  11.815  68.293  1.00  0.00    -0.075 A 
HETATM   31  C   LIG     1     -11.826  11.322  69.517  1.00  0.00    -0.060 A 
HETATM   32  H   LIG     1     -11.570  12.846  68.026  1.00  0.00     0.084 H 
HETATM   33  C   LIG     1     -11.547  10.005  69.886  1.00  0.00     0.074 A 
HETATM   34  H   LIG     1     -12.410  11.967  70.173  1.00  0.00     0.085 H 
HETATM   35  C   LIG     1     -10.850   9.167  69.023  1.00  0.00    -0.060 A 
HETATM   36  C   LIG     1     -10.422   9.651  67.783  1.00  0.00    -0.075 A 
HETATM   37  H   LIG     1     -10.641   8.134  69.295  1.00  0.00     0.085 H 
HETATM   38  H   LIG     1      -9.938   8.955  67.107  1.00  0.00     0.084 H 
BRANCH  33  39
HETATM   39  S   LIG     1     -12.110   9.357  71.438  1.00  0.00     0.239 S 
HETATM   40  O   LIG     1     -13.054  10.283  72.013  1.00  0.00    -0.206 OA
HETATM   41  O   LIG     1     -10.960   8.872  72.174  1.00  0.00    -0.206 OA
BRANCH  39  42
HETATM   42  N   LIG     1     -12.985   8.012  70.926  1.00  0.00    -0.225 NA
HETATM   43  H   LIG     1     -13.985   8.195  71.014  1.00  0.00     0.136 HD
HETATM   44  H   LIG     1     -12.710   7.627  70.018  1.00  0.00     0.136 HD
ENDBRANCH  39  42
ENDBRANCH  33  39
ENDBRANCH  26  29
ENDBRANCH  22  26
ENDBRANCH  13  16
ENDBRANCH  10  12
BRANCH  10  45
HETATM   45  S   LIG     1     -10.151  19.743  67.569  1.00  0.00    -0.163 SA
HETATM   46  H   LIG     1     -10.053  20.354  66.380  1.00  0.00     0.102 HD
ENDBRANCH  10  45
ENDBRANCH   1  10
BRANCH   3  47
HETATM   47  C   LIG     1      -5.384  19.586  70.450  1.00  0.00    -0.025 C 
HETATM   48  H   LIG     1      -5.332  19.312  71.513  1.00  0.00     0.042 H 
HETATM   49  H   LIG     1      -5.915  20.547  70.433  1.00  0.00     0.042 H 
BRANCH  47  50
HETATM   50  C   LIG     1      -3.960  19.777  69.932  1.00  0.00    -0.001 C 
HETATM   51  H   LIG     1      -3.413  18.828  69.891  1.00  0.00     0.064 H 
HETATM   52  H   LIG     1      -3.392  20.461  70.573  1.00  0.00     0.064 H 
BRANCH  50  53
HETATM   53  N   LIG     1      -3.986  20.338  68.593  1.00  0.00    -0.360 N 
HETATM   54  C   LIG     1      -3.701  19.591  67.473  1.00  0.00     0.221 C 
HETATM   55  O   LIG     1      -3.414  18.400  67.528  1.00  0.00    -0.273 OA
HETATM   56  H   LIG     1      -4.257  21.306  68.472  1.00  0.00     0.162 HD
BRANCH  54  57
HETATM   57  C   LIG     1      -3.816  20.386  66.166  1.00  0.00     0.024 C 
HETATM   58  C   LIG     1      -4.298  19.519  64.995  1.00  0.00    -0.051 C 
HETATM   59  C   LIG     1      -5.770  19.127  65.136  1.00  0.00    -0.040 C 
HETATM   60  H   LIG     1      -3.697  18.609  64.894  1.00  0.00     0.034 H 
HETATM   61  H   LIG     1      -4.159  20.079  64.061  1.00  0.00     0.034 H 
HETATM   62  C   LIG     1      -6.678  20.341  65.324  1.00  0.00     0.035 C 
HETATM   63  H   LIG     1      -5.883  18.446  65.988  1.00  0.00     0.036 H 
HETATM   64  H   LIG     1      -6.068  18.575  64.236  1.00  0.00     0.036 H 
HETATM   65  C   LIG     1      -6.196  21.274  66.433  1.00  0.00    -0.040 C 
HETATM   66  H   LIG     1      -7.695  19.997  65.543  1.00  0.00     0.082 H 
HETATM   67  C   LIG     1      -4.710  21.623  66.312  1.00  0.00    -0.051 C 
HETATM   68  H   LIG     1      -6.386  20.806  67.404  1.00  0.00     0.036 H 
HETATM   69  H   LIG     1      -6.770  22.209  66.412  1.00  0.00     0.036 H 
HETATM   70  H   LIG     1      -4.403  22.217  67.181  1.00  0.00     0.034 H 
HETATM   71  H   LIG     1      -4.564  22.263  65.431  1.00  0.00     0.034 H 
HETATM   72  H   LIG     1      -2.797  20.735  65.945  1.00  0.00     0.054 H 
BRANCH  62  73
HETATM   73  O   LIG     1      -6.725  21.062  64.096  1.00  0.00    -0.396 OA
HETATM   74  H   LIG     1      -7.403  20.635  63.541  1.00  0.00     0.210 HD
ENDBRANCH  62  73
ENDBRANCH  54  57
ENDBRANCH  50  53
ENDBRANCH  47  50
ENDBRANCH   3  47
TORSDOF 13
ENDMDL
MODEL 3
REMARK VINA RESULT:      -7.4      2.451      6.134
REMARK  13 active torsions:
REMARK  status: ('A' for Active; 'I' for Inactive)
REMARK    1  A    between atoms: N_1  and  S_2 
REMARK    2  A    between atoms: S_2  and  C_5 
REMARK    3  A    between atoms: C_8  and  C_9 
REMARK    4  A    between atoms: C_9  and  C_10 
REMARK    5  A    between atoms: C_14  and  N_15 
REMARK       I    between atoms: N_15  and  C_16 
REMARK    6  A    between atoms: C_16  and  C_18 
REMARK    7  A    between atoms: C_18  and  S_19 
REMARK    8  A    between atoms: C_18  and  C_20 
REMARK    9  A    between atoms: C_22  and  C_23 
REMARK   10  A    between atoms: C_23  and  C_24 
REMARK   11  A    between atoms: C_24  and  N_25 
REMARK       I    between atoms: N_25  and  C_26 
REMARK   12  A    between atoms: C_26  and  C_28 
REMARK   13  A    between atoms: C_31  and  O_32 
ROOT
HETATM    1  C   LIG     1     -12.869  11.580  71.128  1.00  0.00    -0.018 A 
HETATM    2  C   LIG     1     -12.130  12.502  70.372  1.00  0.00    -0.066 A 
HETATM    3  C   LIG     1     -12.165  13.871  70.677  1.00  0.00    -0.038 A 
HETATM    4  C   LIG     1     -12.970  14.267  71.738  1.00  0.00     0.008 A 
HETATM    5  N   LIG     1     -13.687  13.410  72.499  1.00  0.00    -0.272 NA
HETATM    6  C   LIG     1     -13.594  12.098  72.201  1.00  0.00     0.009 A 
HETATM    7  H   LIG     1     -11.483  12.169  69.563  1.00  0.00     0.085 H 
HETATM    8  H   LIG     1     -13.044  15.307  72.045  1.00  0.00     0.115 H 
HETATM    9  H   LIG     1     -14.135  11.443  72.885  1.00  0.00     0.115 H 
ENDROOT
BRANCH   1  10
HETATM   10  C   LIG     1     -12.896  10.078  70.908  1.00  0.00     0.092 C 
HETATM   11  H   LIG     1     -13.464   9.903  69.986  1.00  0.00     0.078 H 
BRANCH  10  12
HETATM   12  C   LIG     1     -11.491   9.486  70.707  1.00  0.00     0.240 C 
HETATM   13  N   LIG     1     -11.304   8.848  69.486  1.00  0.00    -0.326 N 
HETATM   14  H   LIG     1     -12.120   8.375  69.114  1.00  0.00     0.169 HD
HETATM   15  O   LIG     1     -10.643   9.543  71.598  1.00  0.00    -0.272 OA
BRANCH  13  16
HETATM   16  C   LIG     1     -10.052   8.340  69.092  1.00  0.00     0.035 C 
HETATM   17  C   LIG     1      -9.639   7.061  69.467  1.00  0.00    -0.057 C 
HETATM   18  C   LIG     1      -8.327   6.666  69.221  1.00  0.00    -0.080 C 
HETATM   19  H   LIG     1     -10.293   6.387  70.016  1.00  0.00     0.086 H 
HETATM   20  C   LIG     1      -7.456   7.524  68.547  1.00  0.00    -0.076 C 
HETATM   21  H   LIG     1      -7.982   5.696  69.575  1.00  0.00     0.083 H 
HETATM   22  C   LIG     1      -7.900   8.742  68.008  1.00  0.00    -0.052 C 
HETATM   23  H   LIG     1      -6.419   7.221  68.456  1.00  0.00     0.084 H 
HETATM   24  C   LIG     1      -9.192   9.172  68.359  1.00  0.00    -0.051 C 
HETATM   25  H   LIG     1      -9.553  10.144  68.034  1.00  0.00     0.087 H 
BRANCH  22  26
HETATM   26  C   LIG     1      -7.004   9.583  67.104  1.00  0.00    -0.017 C 
HETATM   27  H   LIG     1      -7.143  10.644  67.351  1.00  0.00     0.047 H 
HETATM   28  H   LIG     1      -5.952   9.368  67.337  1.00  0.00     0.047 H 
BRANCH  26  29
HETATM   29  C   LIG     1      -7.219   9.409  65.601  1.00  0.00    -0.054 A 
HETATM   30  C   LIG     1      -6.480  10.157  64.662  1.00  0.00    -0.075 A 
HETATM   31  C   LIG     1      -6.681   9.989  63.283  1.00  0.00    -0.060 A 
HETATM   32  H   LIG     1      -5.725  10.866  64.996  1.00  0.00     0.084 H 
HETATM   33  C   LIG     1      -7.649   9.093  62.832  1.00  0.00     0.074 A 
HETATM   34  H   LIG     1      -6.081  10.558  62.573  1.00  0.00     0.085 H 
HETATM   35  C   LIG     1      -8.374   8.326  63.738  1.00  0.00    -0.060 A 
HETATM   36  C   LIG     1      -8.132   8.462  65.109  1.00  0.00    -0.075 A 
HETATM   37  H   LIG     1      -9.121   7.613  63.395  1.00  0.00     0.085 H 
HETATM   38  H   LIG     1      -8.667   7.805  65.784  1.00  0.00     0.084 H 
BRANCH  33  39
HETATM   39  S   LIG     1      -7.949   8.875  61.097  1.00  0.00     0.239 S 
HETATM   40  O   LIG     1      -7.842   7.473  60.779  1.00  0.00    -0.206 OA
HETATM   41  O   LIG     1      -7.204   9.888  60.376  1.00  0.00    -0.206 OA
BRANCH  39  42
HETATM   42  N   LIG     1      -9.580   9.284  60.998  1.00  0.00    -0.225 NA
HETATM   43  H   LIG     1     -10.059   9.004  61.855  1.00  0.00     0.136 HD
HETATM   44  H   LIG     1      -9.776  10.244  60.705  1.00  0.00     0.136 HD
ENDBRANCH  39  42
ENDBRANCH  33  39
ENDBRANCH  26  29
ENDBRANCH  22  26
ENDBRANCH  13  16
ENDBRANCH  10  12
BRANCH  10  45
HETATM   45  S   LIG     1     -13.715   9.090  72.212  1.00  0.00    -0.163 SA
HETATM   46  H   LIG     1     -13.533   9.992  73.188  1.00  0.00     0.102 HD
ENDBRANCH  10  45
ENDBRANCH   1  10
BRANCH   3  47
HETATM   47  C   LIG     1     -11.292  14.845  69.936  1.00  0.00    -0.025 C 
HETATM   48  H   LIG     1     -10.282  14.423  69.836  1.00  0.00     0.042 H 
HETATM   49  H   LIG     1     -11.162  15.744  70.554  1.00  0.00     0.042 H 
BRANCH  47  50
HETATM   50  C   LIG     1     -11.787  15.246  68.547  1.00  0.00    -0.001 C 
HETATM   51  H   LIG     1     -11.026  15.804  67.991  1.00  0.00     0.064 H 
HETATM   52  H   LIG     1     -12.681  15.876  68.610  1.00  0.00     0.064 H 
BRANCH  50  53
HETATM   53  N   LIG     1     -12.128  14.063  67.777  1.00  0.00    -0.360 N 
HETATM   54  C   LIG     1     -11.542  13.776  66.565  1.00  0.00     0.221 C 
HETATM   55  O   LIG     1     -10.688  14.495  66.058  1.00  0.00    -0.273 OA
HETATM   56  H   LIG     1     -12.795  13.405  68.158  1.00  0.00     0.162 HD
BRANCH  54  57
HETATM   57  C   LIG     1     -12.038  12.463  65.946  1.00  0.00     0.024 C 
HETATM   58  C   LIG     1     -12.663  12.671  64.559  1.00  0.00    -0.051 C 
HETATM   59  C   LIG     1     -11.614  13.022  63.502  1.00  0.00    -0.040 C 
HETATM   60  H   LIG     1     -13.427  13.455  64.575  1.00  0.00     0.034 H 
HETATM   61  H   LIG     1     -13.181  11.749  64.264  1.00  0.00     0.034 H 
HETATM   62  C   LIG     1     -10.485  11.996  63.442  1.00  0.00     0.035 C 
HETATM   63  H   LIG     1     -11.201  14.014  63.718  1.00  0.00     0.036 H 
HETATM   64  H   LIG     1     -12.114  13.083  62.527  1.00  0.00     0.036 H 
HETATM   65  C   LIG     1      -9.880  11.701  64.813  1.00  0.00    -0.040 C 
HETATM   66  H   LIG     1      -9.706  12.360  62.762  1.00  0.00     0.082 H 
HETATM   67  C   LIG     1     -10.938  11.398  65.877  1.00  0.00    -0.051 C 
HETATM   68  H   LIG     1      -9.275  12.557  65.129  1.00  0.00     0.036 H 
HETATM   69  H   LIG     1      -9.203  10.840  64.747  1.00  0.00     0.036 H 
HETATM   70  H   LIG     1     -10.451  11.286  66.854  1.00  0.00     0.034 H 
HETATM   71  H   LIG     1     -11.405  10.430  65.649  1.00  0.00     0.034 H 
HETATM   72  H   LIG     1     -12.818  12.094  66.627  1.00  0.00     0.054 H 
BRANCH  62  73
HETATM   73  O   LIG     1     -11.002  10.788  62.892  1.00  0.00    -0.396 OA
HETATM   74  H   LIG     1     -10.384  10.076  63.137  1.00  0.00     0.210 HD
ENDBRANCH  62  73
ENDBRANCH  54  57
ENDBRANCH  50  53
ENDBRANCH  47  50
ENDBRANCH   3  47
TORSDOF 13
ENDMDL
MODEL 4
REMARK VINA RESULT:      -7.3      6.582     10.361
REMARK  13 active torsions:
REMARK  status: ('A' for Active; 'I' for Inactive)
REMARK    1  A    between atoms: N_1  and  S_2 
REMARK    2  A    between atoms: S_2  and  C_5 
REMARK    3  A    between atoms: C_8  and  C_9 
REMARK    4  A    between atoms: C_9  and  C_10 
REMARK    5  A    between atoms: C_14  and  N_15 
REMARK       I    between atoms: N_15  and  C_16 
REMARK    6  A    between atoms: C_16  and  C_18 
REMARK    7  A    between atoms: C_18  and  S_19 
REMARK    8  A    between atoms: C_18  and  C_20 
REMARK    9  A    between atoms: C_22  and  C_23 
REMARK   10  A    between atoms: C_23  and  C_24 
REMARK   11  A    between atoms: C_24  and  N_25 
REMARK       I    between atoms: N_25  and  C_26 
REMARK   12  A    between atoms: C_26  and  C_28 
REMARK   13  A    between atoms: C_31  and  O_32 
ROOT
HETATM    1  C   LIG     1      -7.827  18.520  67.720  1.00  0.00    -0.018 A 
HETATM    2  C   LIG     1      -7.264  19.608  68.403  1.00  0.00    -0.066 A 
HETATM    3  C   LIG     1      -6.343  19.404  69.441  1.00  0.00    -0.038 A 
HETATM    4  C   LIG     1      -6.032  18.090  69.767  1.00  0.00     0.008 A 
HETATM    5  N   LIG     1      -6.541  17.014  69.126  1.00  0.00    -0.272 NA
HETATM    6  C   LIG     1      -7.391  17.252  68.106  1.00  0.00     0.009 A 
HETATM    7  H   LIG     1      -7.499  20.631  68.114  1.00  0.00     0.085 H 
HETATM    8  H   LIG     1      -5.319  17.846  70.552  1.00  0.00     0.115 H 
HETATM    9  H   LIG     1      -7.721  16.358  67.577  1.00  0.00     0.115 H 
ENDROOT
BRANCH   1  10
HETATM   10  C   LIG     1      -8.816  18.615  66.572  1.00  0.00     0.092 C 
HETATM   11  H   LIG     1      -8.243  18.473  65.647  1.00  0.00     0.078 H 
BRANCH  10  12
HETATM   12  C   LIG     1      -9.890  17.515  66.627  1.00  0.00     0.240 C 
HETATM   13  N   LIG     1      -9.751  16.526  65.659  1.00  0.00    -0.326 N 
HETATM   14  H   LIG     1      -9.380  16.839  64.769  1.00  0.00     0.169 HD
HETATM   15  O   LIG     1     -10.812  17.566  67.440  1.00  0.00    -0.272 OA
BRANCH  13  16
HETATM   16  C   LIG     1     -10.582  15.390  65.626  1.00  0.00     0.035 C 
HETATM   17  C   LIG     1     -11.213  14.988  64.448  1.00  0.00    -0.057 C 
HETATM   18  C   LIG     1     -12.170  13.979  64.495  1.00  0.00    -0.080 C 
HETATM   19  H   LIG     1     -11.033  15.493  63.502  1.00  0.00     0.086 H 
HETATM   20  C   LIG     1     -12.445  13.335  65.704  1.00  0.00    -0.076 C 
HETATM   21  H   LIG     1     -12.714  13.711  63.592  1.00  0.00     0.083 H 
HETATM   22  C   LIG     1     -11.699  13.604  66.862  1.00  0.00    -0.052 C 
HETATM   23  H   LIG     1     -13.260  12.620  65.721  1.00  0.00     0.084 H 
HETATM   24  C   LIG     1     -10.816  14.697  66.823  1.00  0.00    -0.051 C 
HETATM   25  H   LIG     1     -10.274  14.996  67.717  1.00  0.00     0.087 H 
BRANCH  22  26
HETATM   26  C   LIG     1     -11.863  12.762  68.124  1.00  0.00    -0.017 C 
HETATM   27  H   LIG     1     -12.733  12.102  68.001  1.00  0.00     0.047 H 
HETATM   28  H   LIG     1     -11.002  12.088  68.224  1.00  0.00     0.047 H 
BRANCH  26  29
HETATM   29  C   LIG     1     -12.032  13.540  69.429  1.00  0.00    -0.054 A 
HETATM   30  C   LIG     1     -11.842  14.936  69.481  1.00  0.00    -0.075 A 
HETATM   31  C   LIG     1     -12.003  15.644  70.682  1.00  0.00    -0.060 A 
HETATM   32  H   LIG     1     -11.584  15.490  68.581  1.00  0.00     0.084 H 
HETATM   33  C   LIG     1     -12.324  14.954  71.851  1.00  0.00     0.074 A 
HETATM   34  H   LIG     1     -11.876  16.726  70.697  1.00  0.00     0.085 H 
HETATM   35  C   LIG     1     -12.542  13.581  71.819  1.00  0.00    -0.060 A 
HETATM   36  C   LIG     1     -12.429  12.890  70.609  1.00  0.00    -0.075 A 
HETATM   37  H   LIG     1     -12.808  13.037  72.724  1.00  0.00     0.085 H 
HETATM   38  H   LIG     1     -12.667  11.833  70.606  1.00  0.00     0.084 H 
BRANCH  33  39
HETATM   39  S   LIG     1     -12.509  15.814  73.392  1.00  0.00     0.239 S 
HETATM   40  O   LIG     1     -11.800  17.066  73.313  1.00  0.00    -0.206 OA
HETATM   41  O   LIG     1     -12.288  14.869  74.469  1.00  0.00    -0.206 OA
BRANCH  39  42
HETATM   42  N   LIG     1     -14.154  16.173  73.365  1.00  0.00    -0.225 NA
HETATM   43  H   LIG     1     -14.293  17.171  73.526  1.00  0.00     0.136 HD
HETATM   44  H   LIG     1     -14.672  15.803  72.564  1.00  0.00     0.136 HD
ENDBRANCH  39  42
ENDBRANCH  33  39
ENDBRANCH  26  29
ENDBRANCH  22  26
ENDBRANCH  13  16
ENDBRANCH  10  12
BRANCH  10  45
HETATM   45  S   LIG     1      -9.692  20.212  66.395  1.00  0.00    -0.163 SA
HETATM   46  H   LIG     1      -8.786  20.930  67.076  1.00  0.00     0.102 HD
ENDBRANCH  10  45
ENDBRANCH   1  10
BRANCH   3  47
HETATM   47  C   LIG     1      -5.659  20.569  70.101  1.00  0.00    -0.025 C 
HETATM   48  H   LIG     1      -5.792  20.497  71.190  1.00  0.00     0.042 H 
HETATM   49  H   LIG     1      -6.179  21.493  69.814  1.00  0.00     0.042 H 
BRANCH  47  50
HETATM   50  C   LIG     1      -4.167  20.707  69.806  1.00  0.00    -0.001 C 
HETATM   51  H   LIG     1      -3.612  19.806  70.088  1.00  0.00     0.064 H 
HETATM   52  H   LIG     1      -3.730  21.551  70.353  1.00  0.00     0.064 H 
BRANCH  50  53
HETATM   53  N   LIG     1      -3.956  20.940  68.388  1.00  0.00    -0.360 N 
HETATM   54  C   LIG     1      -3.461  19.970  67.547  1.00  0.00     0.221 C 
HETATM   55  O   LIG     1      -3.171  18.843  67.934  1.00  0.00    -0.273 OA
HETATM   56  H   LIG     1      -4.215  21.835  67.994  1.00  0.00     0.162 HD
BRANCH  54  57
HETATM   57  C   LIG     1      -3.348  20.431  66.088  1.00  0.00     0.024 C 
HETATM   58  C   LIG     1      -3.548  19.279  65.094  1.00  0.00    -0.051 C 
HETATM   59  C   LIG     1      -5.000  18.799  65.053  1.00  0.00    -0.040 C 
HETATM   60  H   LIG     1      -2.900  18.428  65.328  1.00  0.00     0.034 H 
HETATM   61  H   LIG     1      -3.250  19.620  64.094  1.00  0.00     0.034 H 
HETATM   62  C   LIG     1      -5.979  19.936  64.772  1.00  0.00     0.035 C 
HETATM   63  H   LIG     1      -5.251  18.323  66.009  1.00  0.00     0.036 H 
HETATM   64  H   LIG     1      -5.088  18.031  64.275  1.00  0.00     0.036 H 
HETATM   65  C   LIG     1      -5.770  21.138  65.691  1.00  0.00    -0.040 C 
HETATM   66  H   LIG     1      -7.004  19.561  64.877  1.00  0.00     0.082 H 
HETATM   67  C   LIG     1      -4.306  21.583  65.763  1.00  0.00    -0.051 C 
HETATM   68  H   LIG     1      -6.129  20.889  66.694  1.00  0.00     0.036 H 
HETATM   69  H   LIG     1      -6.369  21.988  65.339  1.00  0.00     0.036 H 
HETATM   70  H   LIG     1      -4.206  22.385  66.504  1.00  0.00     0.034 H 
HETATM   71  H   LIG     1      -4.016  22.015  64.796  1.00  0.00     0.034 H 
HETATM   72  H   LIG     1      -2.322  20.811  65.979  1.00  0.00     0.054 H 
BRANCH  62  73
HETATM   73  O   LIG     1      -5.813  20.350  63.418  1.00  0.00    -0.396 OA
HETATM   74  H   LIG     1      -4.878  20.602  63.311  1.00  0.00     0.210 HD
ENDBRANCH  62  73
ENDBRANCH  54  57
ENDBRANCH  50  53
ENDBRANCH  47  50
ENDBRANCH   3  47
TORSDOF 13
ENDMDL
MODEL 5
REMARK VINA RESULT:      -6.6      6.311      9.960
REMARK  13 active torsions:
REMARK  status: ('A' for Active; 'I' for Inactive)
REMARK    1  A    between atoms: N_1  and  S_2 
REMARK    2  A    between atoms: S_2  and  C_5 
REMARK    3  A    between atoms: C_8  and  C_9 
REMARK    4  A    between atoms: C_9  and  C_10 
REMARK    5  A    between atoms: C_14  and  N_15 
REMARK       I    between atoms: N_15  and  C_16 
REMARK    6  A    between atoms: C_16  and  C_18 
REMARK    7  A    between atoms: C_18  and  S_19 
REMARK    8  A    between atoms: C_18  and  C_20 
REMARK    9  A    between atoms: C_22  and  C_23 
REMARK   10  A    between atoms: C_23  and  C_24 
REMARK   11  A    between atoms: C_24  and  N_25 
REMARK       I    between atoms: N_25  and  C_26 
REMARK   12  A    between atoms: C_26  and  C_28 
REMARK   13  A    between atoms: C_31  and  O_32 
ROOT
HETATM    1  C   LIG     1      -7.886  18.393  67.880  1.00  0.00    -0.018 A 
HETATM    2  C   LIG     1      -7.320  19.433  68.630  1.00  0.00    -0.066 A 
HETATM    3  C   LIG     1      -6.346  19.167  69.604  1.00  0.00    -0.038 A 
HETATM    4  C   LIG     1      -5.987  17.839  69.801  1.00  0.00     0.008 A 
HETATM    5  N   LIG     1      -6.499  16.809  69.091  1.00  0.00    -0.272 NA
HETATM    6  C   LIG     1      -7.401  17.109  68.134  1.00  0.00     0.009 A 
HETATM    7  H   LIG     1      -7.594  20.469  68.442  1.00  0.00     0.085 H 
HETATM    8  H   LIG     1      -5.233  17.550  70.528  1.00  0.00     0.115 H 
HETATM    9  H   LIG     1      -7.732  16.254  67.544  1.00  0.00     0.115 H 
ENDROOT
BRANCH   1  10
HETATM   10  C   LIG     1      -8.929  18.557  66.789  1.00  0.00     0.092 C 
HETATM   11  H   LIG     1      -8.395  18.529  65.832  1.00  0.00     0.078 H 
BRANCH  10  12
HETATM   12  C   LIG     1      -9.957  17.412  66.780  1.00  0.00     0.240 C 
HETATM   13  N   LIG     1      -9.820  16.524  65.719  1.00  0.00    -0.326 N 
HETATM   14  H   LIG     1      -9.498  16.934  64.849  1.00  0.00     0.169 HD
HETATM   15  O   LIG     1     -10.848  17.350  67.628  1.00  0.00    -0.272 OA
BRANCH  13  16
HETATM   16  C   LIG     1     -10.608  15.362  65.610  1.00  0.00     0.035 C 
HETATM   17  C   LIG     1     -11.492  15.184  64.544  1.00  0.00    -0.057 C 
HETATM   18  C   LIG     1     -12.386  14.118  64.569  1.00  0.00    -0.080 C 
HETATM   19  H   LIG     1     -11.554  15.898  63.728  1.00  0.00     0.086 H 
HETATM   20  C   LIG     1     -12.351  13.203  65.623  1.00  0.00    -0.076 C 
HETATM   21  H   LIG     1     -13.123  14.015  63.775  1.00  0.00     0.083 H 
HETATM   22  C   LIG     1     -11.357  13.265  66.613  1.00  0.00    -0.052 C 
HETATM   23  H   LIG     1     -13.121  12.440  65.656  1.00  0.00     0.084 H 
HETATM   24  C   LIG     1     -10.534  14.405  66.633  1.00  0.00    -0.051 C 
HETATM   25  H   LIG     1      -9.804  14.540  67.426  1.00  0.00     0.087 H 
BRANCH  22  26
HETATM   26  C   LIG     1     -11.197  12.155  67.647  1.00  0.00    -0.017 C 
HETATM   27  H   LIG     1     -10.615  12.540  68.497  1.00  0.00     0.047 H 
HETATM   28  H   LIG     1     -12.182  11.904  68.063  1.00  0.00     0.047 H 
BRANCH  26  29
HETATM   29  C   LIG     1     -10.530  10.871  67.153  1.00  0.00    -0.054 A 
HETATM   30  C   LIG     1      -9.541  10.898  66.148  1.00  0.00    -0.075 A 
HETATM   31  C   LIG     1      -8.931   9.716  65.702  1.00  0.00    -0.060 A 
HETATM   32  H   LIG     1      -9.223  11.845  65.716  1.00  0.00     0.084 H 
HETATM   33  C   LIG     1      -9.330   8.491  66.235  1.00  0.00     0.074 A 
HETATM   34  H   LIG     1      -8.150   9.761  64.943  1.00  0.00     0.085 H 
HETATM   35  C   LIG     1     -10.285   8.441  67.244  1.00  0.00    -0.060 A 
HETATM   36  C   LIG     1     -10.852   9.627  67.719  1.00  0.00    -0.075 A 
HETATM   37  H   LIG     1     -10.592   7.490  67.677  1.00  0.00     0.085 H 
HETATM   38  H   LIG     1     -11.546   9.560  68.549  1.00  0.00     0.084 H 
BRANCH  33  39
HETATM   39  S   LIG     1      -8.598   6.975  65.675  1.00  0.00     0.239 S 
HETATM   40  O   LIG     1      -8.223   7.123  64.291  1.00  0.00    -0.206 OA
HETATM   41  O   LIG     1      -9.421   5.874  66.137  1.00  0.00    -0.206 OA
BRANCH  39  42
HETATM   42  N   LIG     1      -7.175   6.952  66.575  1.00  0.00    -0.225 NA
HETATM   43  H   LIG     1      -6.375   6.821  65.955  1.00  0.00     0.136 HD
HETATM   44  H   LIG     1      -7.064   7.720  67.242  1.00  0.00     0.136 HD
ENDBRANCH  39  42
ENDBRANCH  33  39
ENDBRANCH  26  29
ENDBRANCH  22  26
ENDBRANCH  13  16
ENDBRANCH  10  12
BRANCH  10  45
HETATM   45  S   LIG     1      -9.872  20.125  66.808  1.00  0.00    -0.163 SA
HETATM   46  H   LIG     1      -9.500  20.511  65.578  1.00  0.00     0.102 HD
ENDBRANCH  10  45
ENDBRANCH   1  10
BRANCH   3  47
HETATM   47  C   LIG     1      -5.662  20.290  70.334  1.00  0.00    -0.025 C 
HETATM   48  H   LIG     1      -5.747  20.123  71.416  1.00  0.00     0.042 H 
HETATM   49  H   LIG     1      -6.215  21.221  70.148  1.00  0.00     0.042 H 
BRANCH  47  50
HETATM   50  C   LIG     1      -4.187  20.493  69.991  1.00  0.00    -0.001 C 
HETATM   51  H   LIG     1      -3.600  19.587  70.173  1.00  0.00     0.064 H 
HETATM   52  H   LIG     1      -3.748  21.300  70.589  1.00  0.00     0.064 H 
BRANCH  50  53
HETATM   53  N   LIG     1      -4.043  20.848  68.590  1.00  0.00    -0.360 N 
HETATM   54  C   LIG     1      -3.558  19.967  67.651  1.00  0.00     0.221 C 
HETATM   55  O   LIG     1      -3.223  18.821  67.932  1.00  0.00    -0.273 OA
HETATM   56  H   LIG     1      -4.342  21.765  68.283  1.00  0.00     0.162 HD
BRANCH  54  57
HETATM   57  C   LIG     1      -3.519  20.550  66.234  1.00  0.00     0.024 C 
HETATM   58  C   LIG     1      -3.752  19.482  65.155  1.00  0.00    -0.051 C 
HETATM   59  C   LIG     1      -5.198  18.985  65.141  1.00  0.00    -0.040 C 
HETATM   60  H   LIG     1      -3.084  18.624  65.287  1.00  0.00     0.034 H 
HETATM   61  H   LIG     1      -3.505  19.910  64.176  1.00  0.00     0.034 H 
HETATM   62  C   LIG     1      -6.203  20.126  65.001  1.00  0.00     0.035 C 
HETATM   63  H   LIG     1      -5.399  18.427  66.063  1.00  0.00     0.036 H 
HETATM   64  H   LIG     1      -5.314  18.283  64.305  1.00  0.00     0.036 H 
HETATM   65  C   LIG     1      -5.965  21.250  66.008  1.00  0.00    -0.040 C 
HETATM   66  H   LIG     1      -7.217  19.728  65.122  1.00  0.00     0.082 H 
HETATM   67  C   LIG     1      -4.505  21.710  66.051  1.00  0.00    -0.051 C 
HETATM   68  H   LIG     1      -6.274  20.912  67.002  1.00  0.00     0.036 H 
HETATM   69  H   LIG     1      -6.589  22.117  65.757  1.00  0.00     0.036 H 
HETATM   70  H   LIG     1      -4.379  22.449  66.852  1.00  0.00     0.034 H 
HETATM   71  H   LIG     1      -4.265  22.225  65.111  1.00  0.00     0.034 H 
HETATM   72  H   LIG     1      -2.504  20.953  66.110  1.00  0.00     0.054 H 
BRANCH  62  73
HETATM   73  O   LIG     1      -6.105  20.654  63.681  1.00  0.00    -0.396 OA
HETATM   74  H   LIG     1      -5.179  20.929  63.553  1.00  0.00     0.210 HD
ENDBRANCH  62  73
ENDBRANCH  54  57
ENDBRANCH  50  53
ENDBRANCH  47  50
ENDBRANCH   3  47
TORSDOF 13
ENDMDL
MODEL 6
REMARK VINA RESULT:      -6.3      8.099     11.491
REMARK  13 active torsions:
REMARK  status: ('A' for Active; 'I' for Inactive)
REMARK    1  A    between atoms: N_1  and  S_2 
REMARK    2  A    between atoms: S_2  and  C_5 
REMARK    3  A    between atoms: C_8  and  C_9 
REMARK    4  A    between atoms: C_9  and  C_10 
REMARK    5  A    between atoms: C_14  and  N_15 
REMARK       I    between atoms: N_15  and  C_16 
REMARK    6  A    between atoms: C_16  and  C_18 
REMARK    7  A    between atoms: C_18  and  S_19 
REMARK    8  A    between atoms: C_18  and  C_20 
REMARK    9  A    between atoms: C_22  and  C_23 
REMARK   10  A    between atoms: C_23  and  C_24 
REMARK   11  A    between atoms: C_24  and  N_25 
REMARK       I    between atoms: N_25  and  C_26 
REMARK   12  A    between atoms: C_26  and  C_28 
REMARK   13  A    between atoms: C_31  and  O_32 
ROOT
HETATM    1  C   LIG     1      -7.780  18.739  67.719  1.00  0.00    -0.018 A 
HETATM    2  C   LIG     1      -7.018  19.790  68.248  1.00  0.00    -0.066 A 
HETATM    3  C   LIG     1      -6.050  19.549  69.235  1.00  0.00    -0.038 A 
HETATM    4  C   LIG     1      -5.897  18.238  69.669  1.00  0.00     0.008 A 
HETATM    5  N   LIG     1      -6.601  17.195  69.177  1.00  0.00    -0.272 NA
HETATM    6  C   LIG     1      -7.493  17.461  68.200  1.00  0.00     0.009 A 
HETATM    7  H   LIG     1      -7.134  20.806  67.875  1.00  0.00     0.085 H 
HETATM    8  H   LIG     1      -5.161  17.965  70.422  1.00  0.00     0.115 H 
HETATM    9  H   LIG     1      -7.985  16.580  67.789  1.00  0.00     0.115 H 
ENDROOT
BRANCH   1  10
HETATM   10  C   LIG     1      -8.839  18.872  66.640  1.00  0.00     0.092 C 
HETATM   11  H   LIG     1      -8.322  18.791  65.676  1.00  0.00     0.078 H 
BRANCH  10  12
HETATM   12  C   LIG     1      -9.887  17.747  66.701  1.00  0.00     0.240 C 
HETATM   13  N   LIG     1      -9.722  16.755  65.740  1.00  0.00    -0.326 N 
HETATM   14  H   LIG     1      -9.357  17.070  64.849  1.00  0.00     0.169 HD
HETATM   15  O   LIG     1     -10.813  17.783  67.510  1.00  0.00    -0.272 OA
BRANCH  13  16
HETATM   16  C   LIG     1     -10.527  15.599  65.713  1.00  0.00     0.035 C 
HETATM   17  C   LIG     1     -11.174  15.195  64.545  1.00  0.00    -0.057 C 
HETATM   18  C   LIG     1     -12.105  14.162  64.603  1.00  0.00    -0.080 C 
HETATM   19  H   LIG     1     -11.027  15.713  63.601  1.00  0.00     0.086 H 
HETATM   20  C   LIG     1     -12.338  13.500  65.810  1.00  0.00    -0.076 C 
HETATM   21  H   LIG     1     -12.663  13.890  63.709  1.00  0.00     0.083 H 
HETATM   22  C   LIG     1     -11.573  13.774  66.955  1.00  0.00    -0.052 C 
HETATM   23  H   LIG     1     -13.135  12.765  65.837  1.00  0.00     0.084 H 
HETATM   24  C   LIG     1     -10.717  14.889  66.908  1.00  0.00    -0.051 C 
HETATM   25  H   LIG     1     -10.164  15.192  67.793  1.00  0.00     0.087 H 
BRANCH  22  26
HETATM   26  C   LIG     1     -11.689  12.916  68.211  1.00  0.00    -0.017 C 
HETATM   27  H   LIG     1     -12.526  12.216  68.088  1.00  0.00     0.047 H 
HETATM   28  H   LIG     1     -10.796  12.284  68.300  1.00  0.00     0.047 H 
BRANCH  26  29
HETATM   29  C   LIG     1     -11.887  13.675  69.523  1.00  0.00    -0.054 A 
HETATM   30  C   LIG     1     -11.423  14.997  69.684  1.00  0.00    -0.075 A 
HETATM   31  C   LIG     1     -11.613  15.689  70.890  1.00  0.00    -0.060 A 
HETATM   32  H   LIG     1     -10.925  15.508  68.862  1.00  0.00     0.084 H 
HETATM   33  C   LIG     1     -12.241  15.050  71.959  1.00  0.00     0.074 A 
HETATM   34  H   LIG     1     -11.270  16.719  70.986  1.00  0.00     0.085 H 
HETATM   35  C   LIG     1     -12.729  13.756  71.816  1.00  0.00    -0.060 A 
HETATM   36  C   LIG     1     -12.582  13.091  70.595  1.00  0.00    -0.075 A 
HETATM   37  H   LIG     1     -13.234  13.255  72.640  1.00  0.00     0.085 H 
HETATM   38  H   LIG     1     -13.028  12.109  70.496  1.00  0.00     0.084 H 
BRANCH  33  39
HETATM   39  S   LIG     1     -12.473  15.885  73.507  1.00  0.00     0.239 S 
HETATM   40  O   LIG     1     -11.806  17.162  73.450  1.00  0.00    -0.206 OA
HETATM   41  O   LIG     1     -12.233  14.937  74.577  1.00  0.00    -0.206 OA
BRANCH  39  42
HETATM   42  N   LIG     1     -14.129  16.188  73.464  1.00  0.00    -0.225 NA
HETATM   43  H   LIG     1     -14.443  16.258  72.495  1.00  0.00     0.136 HD
HETATM   44  H   LIG     1     -14.705  15.574  74.045  1.00  0.00     0.136 HD
ENDBRANCH  39  42
ENDBRANCH  33  39
ENDBRANCH  26  29
ENDBRANCH  22  26
ENDBRANCH  13  16
ENDBRANCH  10  12
BRANCH  10  45
HETATM   45  S   LIG     1      -9.754  20.457  66.602  1.00  0.00    -0.163 SA
HETATM   46  H   LIG     1      -8.822  21.157  67.265  1.00  0.00     0.102 HD
ENDBRANCH  10  45
ENDBRANCH   1  10
BRANCH   3  47
HETATM   47  C   LIG     1      -5.160  20.657  69.725  1.00  0.00    -0.025 C 
HETATM   48  H   LIG     1      -4.881  20.462  70.769  1.00  0.00     0.042 H 
HETATM   49  H   LIG     1      -5.741  21.589  69.757  1.00  0.00     0.042 H 
BRANCH  47  50
HETATM   50  C   LIG     1      -3.882  20.878  68.918  1.00  0.00    -0.001 C 
HETATM   51  H   LIG     1      -4.021  21.634  68.137  1.00  0.00     0.064 H 
HETATM   52  H   LIG     1      -3.556  19.953  68.429  1.00  0.00     0.064 H 
BRANCH  50  53
HETATM   53  N   LIG     1      -2.810  21.324  69.790  1.00  0.00    -0.360 N 
HETATM   54  C   LIG     1      -1.505  21.423  69.365  1.00  0.00     0.221 C 
HETATM   55  O   LIG     1      -1.160  21.151  68.220  1.00  0.00    -0.273 OA
HETATM   56  H   LIG     1      -3.032  21.605  70.736  1.00  0.00     0.162 HD
BRANCH  54  57
HETATM   57  C   LIG     1      -0.550  21.939  70.449  1.00  0.00     0.024 C 
HETATM   58  C   LIG     1      -0.778  21.252  71.803  1.00  0.00    -0.051 C 
HETATM   59  C   LIG     1      -0.319  19.793  71.792  1.00  0.00    -0.040 C 
HETATM   60  H   LIG     1      -1.831  21.291  72.102  1.00  0.00     0.034 H 
HETATM   61  H   LIG     1      -0.223  21.801  72.574  1.00  0.00     0.034 H 
HETATM   62  C   LIG     1       1.133  19.645  71.344  1.00  0.00     0.035 C 
HETATM   63  H   LIG     1      -0.971  19.213  71.128  1.00  0.00     0.036 H 
HETATM   64  H   LIG     1      -0.440  19.386  72.804  1.00  0.00     0.036 H 
HETATM   65  C   LIG     1       1.426  20.375  70.035  1.00  0.00    -0.040 C 
HETATM   66  H   LIG     1       1.368  18.579  71.236  1.00  0.00     0.082 H 
HETATM   67  C   LIG     1       0.921  21.821  70.036  1.00  0.00    -0.051 C 
HETATM   68  H   LIG     1       0.968  19.825  69.207  1.00  0.00     0.036 H 
HETATM   69  H   LIG     1       2.507  20.390  69.848  1.00  0.00     0.036 H 
HETATM   70  H   LIG     1       1.077  22.262  69.044  1.00  0.00     0.034 H 
HETATM   71  H   LIG     1       1.528  22.410  70.737  1.00  0.00     0.034 H 
HETATM   72  H   LIG     1      -0.781  23.008  70.558  1.00  0.00     0.054 H 
BRANCH  62  73
HETATM   73  O   LIG     1       1.976  20.167  72.368  1.00  0.00    -0.396 OA
HETATM   74  H   LIG     1       2.494  20.889  71.969  1.00  0.00     0.210 HD
ENDBRANCH  62  73
ENDBRANCH  54  57
ENDBRANCH  50  53
ENDBRANCH  47  50
ENDBRANCH   3  47
TORSDOF 13
ENDMDL
MODEL 7
REMARK VINA RESULT:      -6.0      7.049     10.339
REMARK  13 active torsions:
REMARK  status: ('A' for Active; 'I' for Inactive)
REMARK    1  A    between atoms: N_1  and  S_2 
REMARK    2  A    between atoms: S_2  and  C_5 
REMARK    3  A    between atoms: C_8  and  C_9 
REMARK    4  A    between atoms: C_9  and  C_10 
REMARK    5  A    between atoms: C_14  and  N_15 
REMARK       I    between atoms: N_15  and  C_16 
REMARK    6  A    between atoms: C_16  and  C_18 
REMARK    7  A    between atoms: C_18  and  S_19 
REMARK    8  A    between atoms: C_18  and  C_20 
REMARK    9  A    between atoms: C_22  and  C_23 
REMARK   10  A    between atoms: C_23  and  C_24 
REMARK   11  A    between atoms: C_24  and  N_25 
REMARK       I    between atoms: N_25  and  C_26 
REMARK   12  A    between atoms: C_26  and  C_28 
REMARK   13  A    between atoms: C_31  and  O_32 
ROOT
HETATM    1  C   LIG     1      -7.773  18.693  67.773  1.00  0.00    -0.018 A 
HETATM    2  C   LIG     1      -7.090  19.741  68.407  1.00  0.00    -0.066 A 
HETATM    3  C   LIG     1      -6.155  19.479  69.419  1.00  0.00    -0.038 A 
HETATM    4  C   LIG     1      -5.952  18.150  69.772  1.00  0.00     0.008 A 
HETATM    5  N   LIG     1      -6.580  17.110  69.177  1.00  0.00    -0.272 NA
HETATM    6  C   LIG     1      -7.440  17.400  68.180  1.00  0.00     0.009 A 
HETATM    7  H   LIG     1      -7.242  20.773  68.098  1.00  0.00     0.085 H 
HETATM    8  H   LIG     1      -5.237  17.861  70.538  1.00  0.00     0.115 H 
HETATM    9  H   LIG     1      -7.868  16.527  67.688  1.00  0.00     0.115 H 
ENDROOT
BRANCH   1  10
HETATM   10  C   LIG     1      -8.789  18.849  66.657  1.00  0.00     0.092 C 
HETATM   11  H   LIG     1      -8.241  18.744  65.712  1.00  0.00     0.078 H 
BRANCH  10  12
HETATM   12  C   LIG     1      -9.872  17.757  66.689  1.00  0.00     0.240 C 
HETATM   13  N   LIG     1      -9.695  16.743  65.754  1.00  0.00    -0.326 N 
HETATM   14  H   LIG     1      -9.280  17.031  64.875  1.00  0.00     0.169 HD
HETATM   15  O   LIG     1     -10.832  17.835  67.455  1.00  0.00    -0.272 OA
BRANCH  13  16
HETATM   16  C   LIG     1     -10.532  15.611  65.710  1.00  0.00     0.035 C 
HETATM   17  C   LIG     1     -11.187  15.240  64.536  1.00  0.00    -0.057 C 
HETATM   18  C   LIG     1     -12.147  14.234  64.577  1.00  0.00    -0.080 C 
HETATM   19  H   LIG     1     -11.022  15.766  63.599  1.00  0.00     0.086 H 
HETATM   20  C   LIG     1     -12.403  13.564  65.776  1.00  0.00    -0.076 C 
HETATM   21  H   LIG     1     -12.710  13.989  63.678  1.00  0.00     0.083 H 
HETATM   22  C   LIG     1     -11.634  13.802  66.926  1.00  0.00    -0.052 C 
HETATM   23  H   LIG     1     -13.221  12.851  65.791  1.00  0.00     0.084 H 
HETATM   24  C   LIG     1     -10.747  14.892  66.896  1.00  0.00    -0.051 C 
HETATM   25  H   LIG     1     -10.188  15.168  67.786  1.00  0.00     0.087 H 
BRANCH  22  26
HETATM   26  C   LIG     1     -11.779  12.932  68.171  1.00  0.00    -0.017 C 
HETATM   27  H   LIG     1     -12.637  12.259  68.038  1.00  0.00     0.047 H 
HETATM   28  H   LIG     1     -10.906  12.272  68.254  1.00  0.00     0.047 H 
BRANCH  26  29
HETATM   29  C   LIG     1     -11.957  13.680  69.492  1.00  0.00    -0.054 A 
HETATM   30  C   LIG     1     -11.442  14.980  69.674  1.00  0.00    -0.075 A 
HETATM   31  C   LIG     1     -11.613  15.662  70.889  1.00  0.00    -0.060 A 
HETATM   32  H   LIG     1     -10.918  15.482  68.864  1.00  0.00     0.084 H 
HETATM   33  C   LIG     1     -12.274  15.035  71.945  1.00  0.00     0.074 A 
HETATM   34  H   LIG     1     -11.230  16.676  71.001  1.00  0.00     0.085 H 
HETATM   35  C   LIG     1     -12.811  13.763  71.780  1.00  0.00    -0.060 A 
HETATM   36  C   LIG     1     -12.682  13.110  70.551  1.00  0.00    -0.075 A 
HETATM   37  H   LIG     1     -13.342  13.271  72.594  1.00  0.00     0.085 H 
HETATM   38  H   LIG     1     -13.166  12.148  70.435  1.00  0.00     0.084 H 
BRANCH  33  39
HETATM   39  S   LIG     1     -12.484  15.857  73.503  1.00  0.00     0.239 S 
HETATM   40  O   LIG     1     -11.790  17.119  73.459  1.00  0.00    -0.206 OA
HETATM   41  O   LIG     1     -12.262  14.892  74.561  1.00  0.00    -0.206 OA
BRANCH  39  42
HETATM   42  N   LIG     1     -14.133  16.196  73.467  1.00  0.00    -0.225 NA
HETATM   43  H   LIG     1     -14.286  17.189  73.649  1.00  0.00     0.136 HD
HETATM   44  H   LIG     1     -14.639  15.839  72.653  1.00  0.00     0.136 HD
ENDBRANCH  39  42
ENDBRANCH  33  39
ENDBRANCH  26  29
ENDBRANCH  22  26
ENDBRANCH  13  16
ENDBRANCH  10  12
BRANCH  10  45
HETATM   45  S   LIG     1      -9.653  20.460  66.575  1.00  0.00    -0.163 SA
HETATM   46  H   LIG     1      -8.723  21.137  67.265  1.00  0.00     0.102 HD
ENDBRANCH  10  45
ENDBRANCH   1  10
BRANCH   3  47
HETATM   47  C   LIG     1      -5.345  20.592  70.024  1.00  0.00    -0.025 C 
HETATM   48  H   LIG     1      -5.149  20.364  71.081  1.00  0.00     0.042 H 
HETATM   49  H   LIG     1      -5.957  21.505  70.042  1.00  0.00     0.042 H 
BRANCH  47  50
HETATM   50  C   LIG     1      -4.012  20.882  69.338  1.00  0.00    -0.001 C 
HETATM   51  H   LIG     1      -3.561  21.811  69.704  1.00  0.00     0.064 H 
HETATM   52  H   LIG     1      -4.136  20.978  68.253  1.00  0.00     0.064 H 
BRANCH  50  53
HETATM   53  N   LIG     1      -3.076  19.800  69.585  1.00  0.00    -0.360 N 
HETATM   54  C   LIG     1      -1.817  19.771  69.029  1.00  0.00     0.221 C 
HETATM   55  O   LIG     1      -1.398  20.659  68.295  1.00  0.00    -0.273 OA
HETATM   56  H   LIG     1      -3.342  19.056  70.216  1.00  0.00     0.162 HD
BRANCH  54  57
HETATM   57  C   LIG     1      -0.995  18.547  69.451  1.00  0.00     0.024 C 
HETATM   58  C   LIG     1      -1.877  17.324  69.743  1.00  0.00    -0.051 C 
HETATM   59  C   LIG     1      -2.491  16.740  68.470  1.00  0.00    -0.040 C 
HETATM   60  H   LIG     1      -2.681  17.565  70.446  1.00  0.00     0.034 H 
HETATM   61  H   LIG     1      -1.265  16.557  70.235  1.00  0.00     0.034 H 
HETATM   62  C   LIG     1      -1.437  16.411  67.415  1.00  0.00     0.035 C 
HETATM   63  H   LIG     1      -3.216  17.451  68.058  1.00  0.00     0.036 H 
HETATM   64  H   LIG     1      -3.044  15.831  68.739  1.00  0.00     0.036 H 
HETATM   65  C   LIG     1      -0.488  17.576  67.143  1.00  0.00    -0.040 C 
HETATM   66  H   LIG     1      -1.939  16.116  66.486  1.00  0.00     0.082 H 
HETATM   67  C   LIG     1       0.085  18.187  68.425  1.00  0.00    -0.051 C 
HETATM   68  H   LIG     1      -1.020  18.346  66.575  1.00  0.00     0.036 H 
HETATM   69  H   LIG     1       0.350  17.240  66.519  1.00  0.00     0.036 H 
HETATM   70  H   LIG     1       0.683  19.071  68.172  1.00  0.00     0.034 H 
HETATM   71  H   LIG     1       0.776  17.466  68.885  1.00  0.00     0.034 H 
HETATM   72  H   LIG     1      -0.488  18.840  70.381  1.00  0.00     0.054 H 
BRANCH  62  73
HETATM   73  O   LIG     1      -0.681  15.290  67.867  1.00  0.00    -0.396 OA
HETATM   74  H   LIG     1      -0.307  15.531  68.734  1.00  0.00     0.210 HD
ENDBRANCH  62  73
ENDBRANCH  54  57
ENDBRANCH  50  53
ENDBRANCH  47  50
ENDBRANCH   3  47
TORSDOF 13
ENDMDL
MODEL 8
REMARK VINA RESULT:      -5.8      6.630     10.135
REMARK  13 active torsions:
REMARK  status: ('A' for Active; 'I' for Inactive)
REMARK    1  A    between atoms: N_1  and  S_2 
REMARK    2  A    between atoms: S_2  and  C_5 
REMARK    3  A    between atoms: C_8  and  C_9 
REMARK    4  A    between atoms: C_9  and  C_10 
REMARK    5  A    between atoms: C_14  and  N_15 
REMARK       I    between atoms: N_15  and  C_16 
REMARK    6  A    between atoms: C_16  and  C_18 
REMARK    7  A    between atoms: C_18  and  S_19 
REMARK    8  A    between atoms: C_18  and  C_20 
REMARK    9  A    between atoms: C_22  and  C_23 
REMARK   10  A    between atoms: C_23  and  C_24 
REMARK   11  A    between atoms: C_24  and  N_25 
REMARK       I    between atoms: N_25  and  C_26 
REMARK   12  A    between atoms: C_26  and  C_28 
REMARK   13  A    between atoms: C_31  and  O_32 
ROOT
HETATM    1  C   LIG     1      -7.619  18.525  67.529  1.00  0.00    -0.018 A 
HETATM    2  C   LIG     1      -6.316  19.024  67.392  1.00  0.00    -0.066 A 
HETATM    3  C   LIG     1      -5.275  18.544  68.201  1.00  0.00    -0.038 A 
HETATM    4  C   LIG     1      -5.596  17.577  69.145  1.00  0.00     0.008 A 
HETATM    5  N   LIG     1      -6.836  17.060  69.301  1.00  0.00    -0.272 NA
HETATM    6  C   LIG     1      -7.801  17.516  68.477  1.00  0.00     0.009 A 
HETATM    7  H   LIG     1      -6.079  19.762  66.628  1.00  0.00     0.085 H 
HETATM    8  H   LIG     1      -4.846  17.145  69.803  1.00  0.00     0.115 H 
HETATM    9  H   LIG     1      -8.764  17.021  68.595  1.00  0.00     0.115 H 
ENDROOT
BRANCH   1  10
HETATM   10  C   LIG     1      -8.819  18.950  66.703  1.00  0.00     0.092 C 
HETATM   11  H   LIG     1      -8.464  19.084  65.674  1.00  0.00     0.078 H 
BRANCH  10  12
HETATM   12  C   LIG     1      -9.926  17.882  66.678  1.00  0.00     0.240 C 
HETATM   13  N   LIG     1      -9.694  16.834  65.793  1.00  0.00    -0.326 N 
HETATM   14  H   LIG     1      -9.201  17.085  64.943  1.00  0.00     0.169 HD
HETATM   15  O   LIG     1     -10.944  18.004  67.358  1.00  0.00    -0.272 OA
BRANCH  13  16
HETATM   16  C   LIG     1     -10.550  15.719  65.714  1.00  0.00     0.035 C 
HETATM   17  C   LIG     1     -11.269  15.438  64.552  1.00  0.00    -0.057 C 
HETATM   18  C   LIG     1     -12.242  14.444  64.573  1.00  0.00    -0.080 C 
HETATM   19  H   LIG     1     -11.144  16.026  63.646  1.00  0.00     0.086 H 
HETATM   20  C   LIG     1     -12.447  13.695  65.734  1.00  0.00    -0.076 C 
HETATM   21  H   LIG     1     -12.853  14.269  63.690  1.00  0.00     0.083 H 
HETATM   22  C   LIG     1     -11.617  13.842  66.857  1.00  0.00    -0.052 C 
HETATM   23  H   LIG     1     -13.275  12.993  65.742  1.00  0.00     0.084 H 
HETATM   24  C   LIG     1     -10.716  14.921  66.856  1.00  0.00    -0.051 C 
HETATM   25  H   LIG     1     -10.108  15.127  67.734  1.00  0.00     0.087 H 
BRANCH  22  26
HETATM   26  C   LIG     1     -11.713  12.889  68.044  1.00  0.00    -0.017 C 
HETATM   27  H   LIG     1     -11.522  13.452  68.969  1.00  0.00     0.047 H 
HETATM   28  H   LIG     1     -12.746  12.528  68.135  1.00  0.00     0.047 H 
BRANCH  26  29
HETATM   29  C   LIG     1     -10.772  11.686  68.013  1.00  0.00    -0.054 A 
HETATM   30  C   LIG     1     -11.220  10.414  67.601  1.00  0.00    -0.075 A 
HETATM   31  C   LIG     1     -10.349   9.314  67.571  1.00  0.00    -0.060 A 
HETATM   32  H   LIG     1     -12.250  10.272  67.280  1.00  0.00     0.084 H 
HETATM   33  C   LIG     1      -9.027   9.471  67.987  1.00  0.00     0.074 A 
HETATM   34  H   LIG     1     -10.708   8.345  67.225  1.00  0.00     0.085 H 
HETATM   35  C   LIG     1      -8.556  10.720  68.374  1.00  0.00    -0.060 A 
HETATM   36  C   LIG     1      -9.416  11.822  68.353  1.00  0.00    -0.075 A 
HETATM   37  H   LIG     1      -7.521  10.855  68.685  1.00  0.00     0.085 H 
HETATM   38  H   LIG     1      -9.002  12.793  68.599  1.00  0.00     0.084 H 
BRANCH  33  39
HETATM   39  S   LIG     1      -7.906   8.096  67.988  1.00  0.00     0.239 S 
HETATM   40  O   LIG     1      -8.640   6.898  68.308  1.00  0.00    -0.206 OA
HETATM   41  O   LIG     1      -6.710   8.484  68.710  1.00  0.00    -0.206 OA
BRANCH  39  42
HETATM   42  N   LIG     1      -7.502   8.009  66.355  1.00  0.00    -0.225 NA
HETATM   43  H   LIG     1      -8.345   7.874  65.797  1.00  0.00     0.136 HD
HETATM   44  H   LIG     1      -6.890   8.754  66.012  1.00  0.00     0.136 HD
ENDBRANCH  39  42
ENDBRANCH  33  39
ENDBRANCH  26  29
ENDBRANCH  22  26
ENDBRANCH  13  16
ENDBRANCH  10  12
BRANCH  10  45
HETATM   45  S   LIG     1      -9.608  20.530  67.184  1.00  0.00    -0.163 SA
HETATM   46  H   LIG     1     -10.867  20.075  67.094  1.00  0.00     0.102 HD
ENDBRANCH  10  45
ENDBRANCH   1  10
BRANCH   3  47
HETATM   47  C   LIG     1      -3.859  19.001  67.982  1.00  0.00    -0.025 C 
HETATM   48  H   LIG     1      -3.260  18.761  68.871  1.00  0.00     0.042 H 
HETATM   49  H   LIG     1      -3.847  20.097  67.921  1.00  0.00     0.042 H 
BRANCH  47  50
HETATM   50  C   LIG     1      -3.162  18.411  66.757  1.00  0.00    -0.001 C 
HETATM   51  H   LIG     1      -3.663  17.504  66.403  1.00  0.00     0.064 H 
HETATM   52  H   LIG     1      -2.120  18.150  66.980  1.00  0.00     0.064 H 
BRANCH  50  53
HETATM   53  N   LIG     1      -3.157  19.375  65.671  1.00  0.00    -0.360 N 
HETATM   54  C   LIG     1      -3.225  18.999  64.350  1.00  0.00     0.221 C 
HETATM   55  O   LIG     1      -3.302  17.826  63.999  1.00  0.00    -0.273 OA
HETATM   56  H   LIG     1      -3.138  20.363  65.892  1.00  0.00     0.162 HD
BRANCH  54  57
HETATM   57  C   LIG     1      -3.232  20.187  63.379  1.00  0.00     0.024 C 
HETATM   58  C   LIG     1      -3.696  19.788  61.971  1.00  0.00    -0.051 C 
HETATM   59  C   LIG     1      -5.191  19.467  61.926  1.00  0.00    -0.040 C 
HETATM   60  H   LIG     1      -3.137  18.925  61.592  1.00  0.00     0.034 H 
HETATM   61  H   LIG     1      -3.481  20.614  61.281  1.00  0.00     0.034 H 
HETATM   62  C   LIG     1      -6.045  20.607  62.477  1.00  0.00     0.035 C 
HETATM   63  H   LIG     1      -5.383  18.552  62.498  1.00  0.00     0.036 H 
HETATM   64  H   LIG     1      -5.469  19.264  60.884  1.00  0.00     0.036 H 
HETATM   65  C   LIG     1      -5.575  21.088  63.849  1.00  0.00    -0.040 C 
HETATM   66  H   LIG     1      -7.089  20.276  62.537  1.00  0.00     0.082 H 
HETATM   67  C   LIG     1      -4.069  21.361  63.899  1.00  0.00    -0.051 C 
HETATM   68  H   LIG     1      -5.839  20.338  64.602  1.00  0.00     0.036 H 
HETATM   69  H   LIG     1      -6.100  22.012  64.122  1.00  0.00     0.036 H 
HETATM   70  H   LIG     1      -3.779  21.613  64.926  1.00  0.00     0.034 H 
HETATM   71  H   LIG     1      -3.847  22.245  63.286  1.00  0.00     0.034 H 
HETATM   72  H   LIG     1      -2.187  20.523  63.319  1.00  0.00     0.054 H 
BRANCH  62  73
HETATM   73  O   LIG     1      -5.993  21.695  61.558  1.00  0.00    -0.396 OA
HETATM   74  H   LIG     1      -6.457  22.442  61.977  1.00  0.00     0.210 HD
ENDBRANCH  62  73
ENDBRANCH  54  57
ENDBRANCH  50  53
ENDBRANCH  47  50
ENDBRANCH   3  47
TORSDOF 13
ENDMDL
MODEL 9
REMARK VINA RESULT:      -5.2     10.616     13.311
REMARK  13 active torsions:
REMARK  status: ('A' for Active; 'I' for Inactive)
REMARK    1  A    between atoms: N_1  and  S_2 
REMARK    2  A    between atoms: S_2  and  C_5 
REMARK    3  A    between atoms: C_8  and  C_9 
REMARK    4  A    between atoms: C_9  and  C_10 
REMARK    5  A    between atoms: C_14  and  N_15 
REMARK       I    between atoms: N_15  and  C_16 
REMARK    6  A    between atoms: C_16  and  C_18 
REMARK    7  A    between atoms: C_18  and  S_19 
REMARK    8  A    between atoms: C_18  and  C_20 
REMARK    9  A    between atoms: C_22  and  C_23 
REMARK   10  A    between atoms: C_23  and  C_24 
REMARK   11  A    between atoms: C_24  and  N_25 
REMARK       I    between atoms: N_25  and  C_26 
REMARK   12  A    between atoms: C_26  and  C_28 
REMARK   13  A    between atoms: C_31  and  O_32 
ROOT
HETATM    1  C   LIG     1      -6.676  18.483  68.499  1.00  0.00    -0.018 A 
HETATM    2  C   LIG     1      -6.276  19.726  69.009  1.00  0.00    -0.066 A 
HETATM    3  C   LIG     1      -5.518  19.808  70.185  1.00  0.00    -0.038 A 
HETATM    4  C   LIG     1      -5.200  18.615  70.823  1.00  0.00     0.008 A 
HETATM    5  N   LIG     1      -5.554  17.396  70.358  1.00  0.00    -0.272 NA
HETATM    6  C   LIG     1      -6.247  17.356  69.202  1.00  0.00     0.009 A 
HETATM    7  H   LIG     1      -6.512  20.648  68.480  1.00  0.00     0.085 H 
HETATM    8  H   LIG     1      -4.606  18.591  71.734  1.00  0.00     0.115 H 
HETATM    9  H   LIG     1      -6.449  16.351  68.833  1.00  0.00     0.115 H 
ENDROOT
BRANCH   1  10
HETATM   10  C   LIG     1      -7.480  18.266  67.229  1.00  0.00     0.092 C 
HETATM   11  H   LIG     1      -8.519  18.528  67.463  1.00  0.00     0.078 H 
BRANCH  10  12
HETATM   12  C   LIG     1      -7.020  19.176  66.078  1.00  0.00     0.240 C 
HETATM   13  N   LIG     1      -5.717  18.946  65.648  1.00  0.00    -0.326 N 
HETATM   14  H   LIG     1      -5.066  18.661  66.371  1.00  0.00     0.169 HD
HETATM   15  O   LIG     1      -7.752  20.060  65.634  1.00  0.00    -0.272 OA
BRANCH  13  16
HETATM   16  C   LIG     1      -5.167  19.616  64.538  1.00  0.00     0.035 C 
HETATM   17  C   LIG     1      -4.799  20.959  64.612  1.00  0.00    -0.057 C 
HETATM   18  C   LIG     1      -4.438  21.634  63.450  1.00  0.00    -0.080 C 
HETATM   19  H   LIG     1      -4.858  21.518  65.543  1.00  0.00     0.086 H 
HETATM   20  C   LIG     1      -4.386  20.950  62.234  1.00  0.00    -0.076 C 
HETATM   21  H   LIG     1      -4.217  22.699  63.493  1.00  0.00     0.083 H 
HETATM   22  C   LIG     1      -4.582  19.561  62.167  1.00  0.00    -0.052 C 
HETATM   23  H   LIG     1      -4.191  21.527  61.338  1.00  0.00     0.084 H 
HETATM   24  C   LIG     1      -5.051  18.918  63.327  1.00  0.00    -0.051 C 
HETATM   25  H   LIG     1      -5.296  17.859  63.304  1.00  0.00     0.087 H 
BRANCH  22  26
HETATM   26  C   LIG     1      -4.329  18.785  60.878  1.00  0.00    -0.017 C 
HETATM   27  H   LIG     1      -3.267  18.506  60.834  1.00  0.00     0.047 H 
HETATM   28  H   LIG     1      -4.875  17.834  60.916  1.00  0.00     0.047 H 
BRANCH  26  29
HETATM   29  C   LIG     1      -4.689  19.508  59.581  1.00  0.00    -0.054 A 
HETATM   30  C   LIG     1      -5.968  19.381  59.001  1.00  0.00    -0.075 A 
HETATM   31  C   LIG     1      -6.293  20.051  57.811  1.00  0.00    -0.060 A 
HETATM   32  H   LIG     1      -6.731  18.772  59.481  1.00  0.00     0.084 H 
HETATM   33  C   LIG     1      -5.328  20.830  57.173  1.00  0.00     0.074 A 
HETATM   34  H   LIG     1      -7.295  19.960  57.392  1.00  0.00     0.085 H 
HETATM   35  C   LIG     1      -4.068  20.991  57.739  1.00  0.00    -0.060 A 
HETATM   36  C   LIG     1      -3.768  20.361  58.951  1.00  0.00    -0.075 A 
HETATM   37  H   LIG     1      -3.313  21.609  57.256  1.00  0.00     0.085 H 
HETATM   38  H   LIG     1      -2.800  20.557  59.397  1.00  0.00     0.084 H 
BRANCH  33  39
HETATM   39  S   LIG     1      -5.696  21.669  55.654  1.00  0.00     0.239 S 
HETATM   40  O   LIG     1      -6.486  20.798  54.822  1.00  0.00    -0.206 OA
HETATM   41  O   LIG     1      -4.481  22.300  55.176  1.00  0.00    -0.206 OA
BRANCH  39  42
HETATM   42  N   LIG     1      -6.717  22.892  56.202  1.00  0.00    -0.225 NA
HETATM   43  H   LIG     1      -7.525  22.484  56.672  1.00  0.00     0.136 HD
HETATM   44  H   LIG     1      -6.262  23.642  56.729  1.00  0.00     0.136 HD
ENDBRANCH  39  42
ENDBRANCH  33  39
ENDBRANCH  26  29
ENDBRANCH  22  26
ENDBRANCH  13  16
ENDBRANCH  10  12
BRANCH  10  45
HETATM   45  S   LIG     1      -7.514  16.554  66.582  1.00  0.00    -0.163 SA
HETATM   46  H   LIG     1      -6.732  16.040  67.542  1.00  0.00     0.102 HD
ENDBRANCH  10  45
ENDBRANCH   1  10
BRANCH   3  47
HETATM   47  C   LIG     1      -4.999  21.132  70.674  1.00  0.00    -0.025 C 
HETATM   48  H   LIG     1      -5.744  21.590  71.339  1.00  0.00     0.042 H 
HETATM   49  H   LIG     1      -4.922  21.818  69.820  1.00  0.00     0.042 H 
BRANCH  47  50
HETATM   50  C   LIG     1      -3.662  21.081  71.412  1.00  0.00    -0.001 C 
HETATM   51  H   LIG     1      -3.439  20.073  71.778  1.00  0.00     0.064 H 
HETATM   52  H   LIG     1      -3.659  21.756  72.276  1.00  0.00     0.064 H 
BRANCH  50  53
HETATM   53  N   LIG     1      -2.585  21.486  70.526  1.00  0.00    -0.360 N 
HETATM   54  C   LIG     1      -1.675  20.590  70.014  1.00  0.00     0.221 C 
HETATM   55  O   LIG     1      -1.715  19.390  70.263  1.00  0.00    -0.273 OA
HETATM   56  H   LIG     1      -2.519  22.455  70.245  1.00  0.00     0.162 HD
BRANCH  54  57
HETATM   57  C   LIG     1      -0.643  21.238  69.081  1.00  0.00     0.024 C 
HETATM   58  C   LIG     1       0.108  20.203  68.232  1.00  0.00    -0.051 C 
HETATM   59  C   LIG     1      -0.786  19.580  67.160  1.00  0.00    -0.040 C 
HETATM   60  H   LIG     1       0.530  19.404  68.851  1.00  0.00     0.034 H 
HETATM   61  H   LIG     1       0.963  20.696  67.751  1.00  0.00     0.034 H 
HETATM   62  C   LIG     1      -1.449  20.632  66.273  1.00  0.00     0.035 C 
HETATM   63  H   LIG     1      -1.556  18.965  67.642  1.00  0.00     0.036 H 
HETATM   64  H   LIG     1      -0.172  18.909  66.545  1.00  0.00     0.036 H 
HETATM   65  C   LIG     1      -2.149  21.726  67.077  1.00  0.00    -0.040 C 
HETATM   66  H   LIG     1      -2.169  20.139  65.609  1.00  0.00     0.082 H 
HETATM   67  C   LIG     1      -1.264  22.312  68.180  1.00  0.00    -0.051 C 
HETATM   68  H   LIG     1      -3.065  21.317  67.517  1.00  0.00     0.036 H 
HETATM   69  H   LIG     1      -2.454  22.544  66.411  1.00  0.00     0.036 H 
HETATM   70  H   LIG     1      -1.848  23.022  68.778  1.00  0.00     0.034 H 
HETATM   71  H   LIG     1      -0.452  22.889  67.717  1.00  0.00     0.034 H 
HETATM   72  H   LIG     1       0.079  21.736  69.744  1.00  0.00     0.054 H 
BRANCH  62  73
HETATM   73  O   LIG     1      -0.447  21.226  65.452  1.00  0.00    -0.396 OA
HETATM   74  H   LIG     1      -0.871  21.960  64.973  1.00  0.00     0.210 HD
ENDBRANCH  62  73
ENDBRANCH  54  57
ENDBRANCH  50  53
ENDBRANCH  47  50
ENDBRANCH   3  47
TORSDOF 13
ENDMDL
MODEL 10
REMARK VINA RESULT:      -5.1      9.815     12.651
REMARK  13 active torsions:
REMARK  status: ('A' for Active; 'I' for Inactive)
REMARK    1  A    between atoms: N_1  and  S_2 
REMARK    2  A    between atoms: S_2  and  C_5 
REMARK    3  A    between atoms: C_8  and  C_9 
REMARK    4  A    between atoms: C_9  and  C_10 
REMARK    5  A    between atoms: C_14  and  N_15 
REMARK       I    between atoms: N_15  and  C_16 
REMARK    6  A    between atoms: C_16  and  C_18 
REMARK    7  A    between atoms: C_18  and  S_19 
REMARK    8  A    between atoms: C_18  and  C_20 
REMARK    9  A    between atoms: C_22  and  C_23 
REMARK   10  A    between atoms: C_23  and  C_24 
REMARK   11  A    between atoms: C_24  and  N_25 
REMARK       I    between atoms: N_25  and  C_26 
REMARK   12  A    between atoms: C_26  and  C_28 
REMARK   13  A    between atoms: C_31  and  O_32 
ROOT
HETATM    1  C   LIG     1      -6.961  18.750  68.735  1.00  0.00    -0.018 A 
HETATM    2  C   LIG     1      -6.348  19.961  69.090  1.00  0.00    -0.066 A 
HETATM    3  C   LIG     1      -5.284  19.985  70.003  1.00  0.00    -0.038 A 
HETATM    4  C   LIG     1      -4.881  18.771  70.545  1.00  0.00     0.008 A 
HETATM    5  N   LIG     1      -5.436  17.581  70.220  1.00  0.00    -0.272 NA
HETATM    6  C   LIG     1      -6.429  17.594  69.308  1.00  0.00     0.009 A 
HETATM    7  H   LIG     1      -6.660  20.898  68.634  1.00  0.00     0.085 H 
HETATM    8  H   LIG     1      -4.057  18.701  71.251  1.00  0.00     0.115 H 
HETATM    9  H   LIG     1      -6.796  16.607  69.028  1.00  0.00     0.115 H 
ENDROOT
BRANCH   1  10
HETATM   10  C   LIG     1      -8.104  18.595  67.748  1.00  0.00     0.092 C 
HETATM   11  H   LIG     1      -8.962  19.134  68.169  1.00  0.00     0.078 H 
BRANCH  10  12
HETATM   12  C   LIG     1      -7.789  19.221  66.379  1.00  0.00     0.240 C 
HETATM   13  N   LIG     1      -6.471  19.062  65.963  1.00  0.00    -0.326 N 
HETATM   14  H   LIG     1      -5.779  19.068  66.703  1.00  0.00     0.169 HD
HETATM   15  O   LIG     1      -8.643  19.850  65.755  1.00  0.00    -0.272 OA
BRANCH  13  16
HETATM   16  C   LIG     1      -6.033  19.480  64.692  1.00  0.00     0.035 C 
HETATM   17  C   LIG     1      -6.382  20.731  64.182  1.00  0.00    -0.057 C 
HETATM   18  C   LIG     1      -6.091  21.033  62.855  1.00  0.00    -0.080 C 
HETATM   19  H   LIG     1      -6.943  21.453  64.770  1.00  0.00     0.086 H 
HETATM   20  C   LIG     1      -5.400  20.112  62.065  1.00  0.00    -0.076 C 
HETATM   21  H   LIG     1      -6.423  21.980  62.433  1.00  0.00     0.083 H 
HETATM   22  C   LIG     1      -4.888  18.922  62.608  1.00  0.00    -0.052 C 
HETATM   23  H   LIG     1      -5.273  20.343  61.013  1.00  0.00     0.084 H 
HETATM   24  C   LIG     1      -5.284  18.585  63.914  1.00  0.00    -0.051 C 
HETATM   25  H   LIG     1      -4.980  17.637  64.350  1.00  0.00     0.087 H 
BRANCH  22  26
HETATM   26  C   LIG     1      -3.965  18.015  61.800  1.00  0.00    -0.017 C 
HETATM   27  H   LIG     1      -2.947  18.427  61.826  1.00  0.00     0.047 H 
HETATM   28  H   LIG     1      -3.893  17.039  62.297  1.00  0.00     0.047 H 
BRANCH  26  29
HETATM   29  C   LIG     1      -4.355  17.795  60.339  1.00  0.00    -0.054 A 
HETATM   30  C   LIG     1      -4.938  16.585  59.909  1.00  0.00    -0.075 A 
HETATM   31  C   LIG     1      -5.297  16.392  58.566  1.00  0.00    -0.060 A 
HETATM   32  H   LIG     1      -5.136  15.787  60.621  1.00  0.00     0.084 H 
HETATM   33  C   LIG     1      -5.045  17.399  57.633  1.00  0.00     0.074 A 
HETATM   34  H   LIG     1      -5.770  15.460  58.258  1.00  0.00     0.085 H 
HETATM   35  C   LIG     1      -4.494  18.609  58.038  1.00  0.00    -0.060 A 
HETATM   36  C   LIG     1      -4.186  18.814  59.386  1.00  0.00    -0.075 A 
HETATM   37  H   LIG     1      -4.308  19.406  57.320  1.00  0.00     0.085 H 
HETATM   38  H   LIG     1      -3.817  19.789  59.679  1.00  0.00     0.084 H 
BRANCH  33  39
HETATM   39  S   LIG     1      -5.461  17.178  55.923  1.00  0.00     0.239 S 
HETATM   40  O   LIG     1      -5.193  15.811  55.552  1.00  0.00    -0.206 OA
HETATM   41  O   LIG     1      -4.927  18.299  55.176  1.00  0.00    -0.206 OA
BRANCH  39  42
HETATM   42  N   LIG     1      -7.135  17.358  55.974  1.00  0.00    -0.225 NA
HETATM   43  H   LIG     1      -7.539  16.666  56.606  1.00  0.00     0.136 HD
HETATM   44  H   LIG     1      -7.471  18.312  56.130  1.00  0.00     0.136 HD
ENDBRANCH  39  42
ENDBRANCH  33  39
ENDBRANCH  26  29
ENDBRANCH  22  26
ENDBRANCH  13  16
ENDBRANCH  10  12
BRANCH  10  45
HETATM   45  S   LIG     1      -8.673  16.883  67.440  1.00  0.00    -0.163 SA
HETATM   46  H   LIG     1      -8.025  16.743  66.274  1.00  0.00     0.102 HD
ENDBRANCH  10  45
ENDBRANCH   1  10
BRANCH   3  47
HETATM   47  C   LIG     1      -4.558  21.267  70.303  1.00  0.00    -0.025 C 
HETATM   48  H   LIG     1      -5.003  21.736  71.192  1.00  0.00     0.042 H 
HETATM   49  H   LIG     1      -4.744  21.978  69.487  1.00  0.00     0.042 H 
BRANCH  47  50
HETATM   50  C   LIG     1      -3.053  21.132  70.532  1.00  0.00    -0.001 C 
HETATM   51  H   LIG     1      -2.766  20.094  70.734  1.00  0.00     0.064 H 
HETATM   52  H   LIG     1      -2.724  21.740  71.383  1.00  0.00     0.064 H 
BRANCH  50  53
HETATM   53  N   LIG     1      -2.326  21.579  69.357  1.00  0.00    -0.360 N 
HETATM   54  C   LIG     1      -1.807  20.702  68.432  1.00  0.00     0.221 C 
HETATM   55  O   LIG     1      -1.931  19.486  68.532  1.00  0.00    -0.273 OA
HETATM   56  H   LIG     1      -2.225  22.572  69.191  1.00  0.00     0.162 HD
BRANCH  54  57
HETATM   57  C   LIG     1      -1.103  21.400  67.262  1.00  0.00     0.024 C 
HETATM   58  C   LIG     1      -0.767  20.430  66.120  1.00  0.00    -0.051 C 
HETATM   59  C   LIG     1      -2.017  19.968  65.371  1.00  0.00    -0.040 C 
HETATM   60  H   LIG     1      -0.227  19.550  66.485  1.00  0.00     0.034 H 
HETATM   61  H   LIG     1      -0.088  20.933  65.419  1.00  0.00     0.034 H 
HETATM   62  C   LIG     1      -2.854  21.139  64.860  1.00  0.00     0.035 C 
HETATM   63  H   LIG     1      -2.626  19.340  66.033  1.00  0.00     0.036 H 
HETATM   64  H   LIG     1      -1.702  19.340  64.527  1.00  0.00     0.036 H 
HETATM   65  C   LIG     1      -3.153  22.170  65.947  1.00  0.00    -0.040 C 
HETATM   66  H   LIG     1      -3.793  20.755  64.445  1.00  0.00     0.082 H 
HETATM   67  C   LIG     1      -1.903  22.592  66.725  1.00  0.00    -0.051 C 
HETATM   68  H   LIG     1      -3.895  21.758  66.638  1.00  0.00     0.036 H 
HETATM   69  H   LIG     1      -3.598  23.068  65.500  1.00  0.00     0.036 H 
HETATM   70  H   LIG     1      -2.193  23.259  67.546  1.00  0.00     0.034 H 
HETATM   71  H   LIG     1      -1.252  23.179  66.063  1.00  0.00     0.034 H 
HETATM   72  H   LIG     1      -0.162  21.789  67.676  1.00  0.00     0.054 H 
BRANCH  62  73
HETATM   73  O   LIG     1      -2.144  21.772  63.800  1.00  0.00    -0.396 OA
HETATM   74  H   LIG     1      -2.645  22.573  63.561  1.00  0.00     0.210 HD
ENDBRANCH  62  73
ENDBRANCH  54  57
ENDBRANCH  50  53
ENDBRANCH  47  50
ENDBRANCH   3  47
TORSDOF 13
ENDMDL
