MODEL 1
REMARK VINA RESULT:      -7.0      0.000      0.000
REMARK  14 active torsions:
REMARK  status: ('A' for Active; 'I' for Inactive)
REMARK    1  A    between atoms: N_1  and  S_2 
REMARK    2  A    between atoms: S_2  and  C_5 
REMARK    3  A    between atoms: C_8  and  C_9 
REMARK    4  A    between atoms: C_9  and  C_10 
REMARK    5  A    between atoms: C_14  and  N_15 
REMARK       I    between atoms: N_15  and  C_16 
REMARK    6  A    between atoms: C_16  and  C_18 
REMARK    7  A    between atoms: C_18  and  C_19 
REMARK    8  A    between atoms: C_18  and  C_21 
REMARK    9  A    between atoms: C_19  and  S_20 
REMARK   10  A    between atoms: C_23  and  C_24 
REMARK   11  A    between atoms: C_24  and  C_25 
REMARK   12  A    between atoms: C_25  and  N_26 
REMARK       I    between atoms: N_26  and  C_27 
REMARK   13  A    between atoms: C_27  and  C_29 
REMARK   14  A    between atoms: C_32  and  O_33 
ROOT
HETATM    1  C   LIG     1     -10.978   9.706  69.435  1.00  0.00     0.058 C 
HETATM    2  H   LIG     1     -11.673   9.261  68.705  1.00  0.00     0.063 H 
ENDROOT
BRANCH   1   3
HETATM    3  C   LIG     1      -9.922  10.390  68.556  1.00  0.00     0.231 C 
HETATM    4  N   LIG     1      -8.700  10.615  69.179  1.00  0.00    -0.327 N 
HETATM    5  H   LIG     1      -8.454  10.011  69.954  1.00  0.00     0.169 HD
HETATM    6  O   LIG     1     -10.172  10.736  67.402  1.00  0.00    -0.272 OA
BRANCH   4   7
HETATM    7  C   LIG     1      -7.647  11.333  68.574  1.00  0.00     0.035 A 
HETATM    8  C   LIG     1      -6.823  10.671  67.667  1.00  0.00    -0.057 A 
HETATM    9  C   LIG     1      -5.813  11.365  66.996  1.00  0.00    -0.080 A 
HETATM   10  H   LIG     1      -6.994   9.626  67.428  1.00  0.00     0.086 H 
HETATM   11  C   LIG     1      -5.567  12.704  67.294  1.00  0.00    -0.076 A 
HETATM   12  H   LIG     1      -5.216  10.866  66.238  1.00  0.00     0.083 H 
HETATM   13  C   LIG     1      -6.330  13.364  68.265  1.00  0.00    -0.052 A 
HETATM   14  H   LIG     1      -4.764  13.227  66.778  1.00  0.00     0.084 H 
HETATM   15  C   LIG     1      -7.392  12.676  68.874  1.00  0.00    -0.051 A 
HETATM   16  H   LIG     1      -8.000  13.192  69.615  1.00  0.00     0.087 H 
BRANCH  13  17
HETATM   17  C   LIG     1      -6.023  14.794  68.657  1.00  0.00    -0.017 C 
HETATM   18  H   LIG     1      -5.937  14.837  69.750  1.00  0.00     0.047 H 
HETATM   19  H   LIG     1      -5.040  15.094  68.271  1.00  0.00     0.047 H 
BRANCH  17  20
HETATM   20  C   LIG     1      -7.041  15.803  68.164  1.00  0.00    -0.054 A 
HETATM   21  C   LIG     1      -7.063  16.181  66.814  1.00  0.00    -0.075 A 
HETATM   22  C   LIG     1      -7.998  17.109  66.350  1.00  0.00    -0.060 A 
HETATM   23  H   LIG     1      -6.353  15.754  66.108  1.00  0.00     0.084 H 
HETATM   24  C   LIG     1      -8.920  17.669  67.241  1.00  0.00     0.074 A 
HETATM   25  H   LIG     1      -8.007  17.381  65.297  1.00  0.00     0.085 H 
HETATM   26  C   LIG     1      -8.923  17.296  68.584  1.00  0.00    -0.060 A 
HETATM   27  C   LIG     1      -7.986  16.364  69.043  1.00  0.00    -0.075 A 
HETATM   28  H   LIG     1      -9.648  17.717  69.279  1.00  0.00     0.085 H 
HETATM   29  H   LIG     1      -7.990  16.074  70.093  1.00  0.00     0.084 H 
BRANCH  24  30
HETATM   30  S   LIG     1     -10.107  18.827  66.625  1.00  0.00     0.239 S 
HETATM   31  O   LIG     1     -10.810  19.405  67.754  1.00  0.00    -0.206 OA
HETATM   32  O   LIG     1     -10.790  18.265  65.495  1.00  0.00    -0.206 OA
BRANCH  30  33
HETATM   33  N   LIG     1      -9.154  20.061  65.998  1.00  0.00    -0.225 NA
HETATM   34  H   LIG     1      -9.477  20.958  66.364  1.00  0.00     0.136 HD
HETATM   35  H   LIG     1      -9.183  20.013  64.977  1.00  0.00     0.136 HD
ENDBRANCH  30  33
ENDBRANCH  24  30
ENDBRANCH  17  20
ENDBRANCH  13  17
ENDBRANCH   4   7
ENDBRANCH   1   3
BRANCH   1  36
HETATM   36  C   LIG     1     -10.400   8.502  70.216  1.00  0.00    -0.011 C 
HETATM   37  H   LIG     1     -10.510   8.685  71.291  1.00  0.00     0.050 H 
HETATM   38  H   LIG     1      -9.328   8.413  70.013  1.00  0.00     0.050 H 
BRANCH  36  39
HETATM   39  S   LIG     1     -11.129   6.852  69.907  1.00  0.00    -0.181 SA
HETATM   40  H   LIG     1     -10.728   6.760  68.623  1.00  0.00     0.101 HD
ENDBRANCH  36  39
ENDBRANCH   1  36
BRANCH   1  41
HETATM   41  C   LIG     1     -11.790  10.662  70.292  1.00  0.00    -0.026 A 
HETATM   42  C   LIG     1     -11.845  12.037  70.041  1.00  0.00    -0.067 A 
HETATM   43  C   LIG     1     -12.630  12.871  70.844  1.00  0.00    -0.038 A 
HETATM   44  H   LIG     1     -11.277  12.466  69.219  1.00  0.00     0.085 H 
HETATM   45  C   LIG     1     -13.330  12.283  71.889  1.00  0.00     0.008 A 
HETATM   46  N   LIG     1     -13.316  10.963  72.155  1.00  0.00    -0.272 NA
HETATM   47  H   LIG     1     -13.953  12.874  72.556  1.00  0.00     0.115 H 
HETATM   48  C   LIG     1     -12.544  10.187  71.365  1.00  0.00     0.009 A 
HETATM   49  H   LIG     1     -12.570   9.133  71.632  1.00  0.00     0.115 H 
BRANCH  43  50
HETATM   50  C   LIG     1     -12.713  14.356  70.601  1.00  0.00    -0.025 C 
HETATM   51  H   LIG     1     -12.717  14.893  71.558  1.00  0.00     0.042 H 
HETATM   52  H   LIG     1     -13.675  14.564  70.118  1.00  0.00     0.042 H 
BRANCH  50  53
HETATM   53  C   LIG     1     -11.579  14.901  69.723  1.00  0.00    -0.001 C 
HETATM   54  H   LIG     1     -10.696  14.262  69.830  1.00  0.00     0.064 H 
HETATM   55  H   LIG     1     -11.287  15.911  70.031  1.00  0.00     0.064 H 
BRANCH  53  56
HETATM   56  N   LIG     1     -11.947  14.981  68.322  1.00  0.00    -0.360 N 
HETATM   57  C   LIG     1     -11.099  14.545  67.325  1.00  0.00     0.221 C 
HETATM   58  O   LIG     1     -10.037  13.979  67.558  1.00  0.00    -0.273 OA
HETATM   59  H   LIG     1     -12.724  15.580  68.074  1.00  0.00     0.162 HD
BRANCH  57  60
HETATM   60  C   LIG     1     -11.589  14.858  65.910  1.00  0.00     0.024 C 
HETATM   61  C   LIG     1     -10.468  14.725  64.867  1.00  0.00    -0.051 C 
HETATM   62  C   LIG     1     -10.120  13.271  64.540  1.00  0.00    -0.040 C 
HETATM   63  H   LIG     1      -9.561  15.241  65.208  1.00  0.00     0.034 H 
HETATM   64  H   LIG     1     -10.778  15.230  63.943  1.00  0.00     0.034 H 
HETATM   65  C   LIG     1     -11.346  12.448  64.154  1.00  0.00     0.035 C 
HETATM   66  H   LIG     1      -9.631  12.806  65.404  1.00  0.00     0.036 H 
HETATM   67  H   LIG     1      -9.395  13.264  63.718  1.00  0.00     0.036 H 
HETATM   68  C   LIG     1     -12.460  12.561  65.192  1.00  0.00    -0.040 C 
HETATM   69  H   LIG     1     -11.054  11.397  64.055  1.00  0.00     0.082 H 
HETATM   70  C   LIG     1     -12.808  14.008  65.535  1.00  0.00    -0.051 C 
HETATM   71  H   LIG     1     -12.160  12.038  66.107  1.00  0.00     0.036 H 
HETATM   72  H   LIG     1     -13.367  12.070  64.818  1.00  0.00     0.036 H 
HETATM   73  H   LIG     1     -13.553  13.997  66.338  1.00  0.00     0.034 H 
HETATM   74  H   LIG     1     -13.297  14.475  64.674  1.00  0.00     0.034 H 
HETATM   75  H   LIG     1     -11.896  15.914  65.929  1.00  0.00     0.054 H 
BRANCH  65  76
HETATM   76  O   LIG     1     -11.807  12.856  62.867  1.00  0.00    -0.396 OA
HETATM   77  H   LIG     1     -12.710  13.200  62.943  1.00  0.00     0.210 HD
ENDBRANCH  65  76
ENDBRANCH  57  60
ENDBRANCH  53  56
ENDBRANCH  50  53
ENDBRANCH  43  50
ENDBRANCH   1  41
TORSDOF 14
ENDMDL
MODEL 2
REMARK VINA RESULT:      -6.7      3.168      8.265
REMARK  14 active torsions:
REMARK  status: ('A' for Active; 'I' for Inactive)
REMARK    1  A    between atoms: N_1  and  S_2 
REMARK    2  A    between atoms: S_2  and  C_5 
REMARK    3  A    between atoms: C_8  and  C_9 
REMARK    4  A    between atoms: C_9  and  C_10 
REMARK    5  A    between atoms: C_14  and  N_15 
REMARK       I    between atoms: N_15  and  C_16 
REMARK    6  A    between atoms: C_16  and  C_18 
REMARK    7  A    between atoms: C_18  and  C_19 
REMARK    8  A    between atoms: C_18  and  C_21 
REMARK    9  A    between atoms: C_19  and  S_20 
REMARK   10  A    between atoms: C_23  and  C_24 
REMARK   11  A    between atoms: C_24  and  C_25 
REMARK   12  A    between atoms: C_25  and  N_26 
REMARK       I    between atoms: N_26  and  C_27 
REMARK   13  A    between atoms: C_27  and  C_29 
REMARK   14  A    between atoms: C_32  and  O_33 
ROOT
HETATM    1  C   LIG     1     -11.961  13.800  69.059  1.00  0.00     0.058 C 
HETATM    2  H   LIG     1     -13.012  14.133  69.065  1.00  0.00     0.063 H 
ENDROOT
BRANCH   1   3
HETATM    3  C   LIG     1     -12.060  12.294  69.344  1.00  0.00     0.231 C 
HETATM    4  N   LIG     1     -12.143  11.959  70.690  1.00  0.00    -0.327 N 
HETATM    5  H   LIG     1     -12.515  12.657  71.322  1.00  0.00     0.169 HD
HETATM    6  O   LIG     1     -12.030  11.465  68.435  1.00  0.00    -0.272 OA
BRANCH   4   7
HETATM    7  C   LIG     1     -12.123  10.627  71.155  1.00  0.00     0.035 A 
HETATM    8  C   LIG     1     -13.222  10.154  71.870  1.00  0.00    -0.057 A 
HETATM    9  C   LIG     1     -13.270   8.821  72.287  1.00  0.00    -0.080 A 
HETATM   10  H   LIG     1     -14.076  10.797  72.058  1.00  0.00     0.086 H 
HETATM   11  C   LIG     1     -12.181   7.979  72.068  1.00  0.00    -0.076 A 
HETATM   12  H   LIG     1     -14.156   8.434  72.783  1.00  0.00     0.083 H 
HETATM   13  C   LIG     1     -11.034   8.460  71.425  1.00  0.00    -0.052 A 
HETATM   14  H   LIG     1     -12.225   6.949  72.416  1.00  0.00     0.084 H 
HETATM   15  C   LIG     1     -11.031   9.779  70.942  1.00  0.00    -0.051 A 
HETATM   16  H   LIG     1     -10.148  10.150  70.425  1.00  0.00     0.087 H 
BRANCH  13  17
HETATM   17  C   LIG     1      -9.814   7.581  71.250  1.00  0.00    -0.017 C 
HETATM   18  H   LIG     1      -8.921   8.207  71.379  1.00  0.00     0.047 H 
HETATM   19  H   LIG     1      -9.765   6.830  72.049  1.00  0.00     0.047 H 
BRANCH  17  20
HETATM   20  C   LIG     1      -9.762   6.849  69.924  1.00  0.00    -0.054 A 
HETATM   21  C   LIG     1     -10.149   5.503  69.846  1.00  0.00    -0.075 A 
HETATM   22  C   LIG     1     -10.107   4.821  68.628  1.00  0.00    -0.060 A 
HETATM   23  H   LIG     1     -10.489   4.973  70.733  1.00  0.00     0.084 H 
HETATM   24  C   LIG     1      -9.673   5.485  67.476  1.00  0.00     0.074 A 
HETATM   25  H   LIG     1     -10.421   3.781  68.585  1.00  0.00     0.085 H 
HETATM   26  C   LIG     1      -9.298   6.826  67.531  1.00  0.00    -0.060 A 
HETATM   27  C   LIG     1      -9.344   7.506  68.753  1.00  0.00    -0.075 A 
HETATM   28  H   LIG     1      -8.973   7.352  66.634  1.00  0.00     0.085 H 
HETATM   29  H   LIG     1      -9.051   8.554  68.793  1.00  0.00     0.084 H 
BRANCH  24  30
HETATM   30  S   LIG     1      -9.647   4.604  65.942  1.00  0.00     0.239 S 
HETATM   31  O   LIG     1      -9.391   3.204  66.223  1.00  0.00    -0.206 OA
HETATM   32  O   LIG     1      -8.898   5.346  64.969  1.00  0.00    -0.206 OA
BRANCH  30  33
HETATM   33  N   LIG     1     -11.244   4.681  65.425  1.00  0.00    -0.225 NA
HETATM   34  H   LIG     1     -11.268   4.908  64.429  1.00  0.00     0.136 HD
HETATM   35  H   LIG     1     -11.744   5.363  66.001  1.00  0.00     0.136 HD
ENDBRANCH  30  33
ENDBRANCH  24  30
ENDBRANCH  17  20
ENDBRANCH  13  17
ENDBRANCH   4   7
ENDBRANCH   1   3
BRANCH   1  36
HETATM   36  C   LIG     1     -11.294  14.574  70.222  1.00  0.00    -0.011 C 
HETATM   37  H   LIG     1     -10.497  15.208  69.820  1.00  0.00     0.050 H 
HETATM   38  H   LIG     1     -10.825  13.867  70.913  1.00  0.00     0.050 H 
BRANCH  36  39
HETATM   39  S   LIG     1     -12.351  15.672  71.236  1.00  0.00    -0.181 SA
HETATM   40  H   LIG     1     -13.499  15.405  70.582  1.00  0.00     0.101 HD
ENDBRANCH  36  39
ENDBRANCH   1  36
BRANCH   1  41
HETATM   41  C   LIG     1     -11.397  14.140  67.691  1.00  0.00    -0.026 A 
HETATM   42  C   LIG     1     -12.094  13.888  66.505  1.00  0.00    -0.067 A 
HETATM   43  C   LIG     1     -11.542  14.246  65.270  1.00  0.00    -0.038 A 
HETATM   44  H   LIG     1     -13.072  13.412  66.535  1.00  0.00     0.085 H 
HETATM   45  C   LIG     1     -10.288  14.842  65.277  1.00  0.00     0.008 A 
HETATM   46  N   LIG     1      -9.590  15.115  66.396  1.00  0.00    -0.272 NA
HETATM   47  H   LIG     1      -9.798  15.138  64.353  1.00  0.00     0.115 H 
HETATM   48  C   LIG     1     -10.150  14.751  67.570  1.00  0.00     0.009 A 
HETATM   49  H   LIG     1      -9.537  14.993  68.436  1.00  0.00     0.115 H 
BRANCH  43  50
HETATM   50  C   LIG     1     -12.267  13.991  63.974  1.00  0.00    -0.025 C 
HETATM   51  H   LIG     1     -12.089  14.818  63.276  1.00  0.00     0.042 H 
HETATM   52  H   LIG     1     -13.343  13.983  64.186  1.00  0.00     0.042 H 
BRANCH  50  53
HETATM   53  C   LIG     1     -11.875  12.669  63.300  1.00  0.00    -0.001 C 
HETATM   54  H   LIG     1     -11.177  12.870  62.481  1.00  0.00     0.064 H 
HETATM   55  H   LIG     1     -12.749  12.169  62.867  1.00  0.00     0.064 H 
BRANCH  53  56
HETATM   56  N   LIG     1     -11.273  11.728  64.225  1.00  0.00    -0.360 N 
HETATM   57  C   LIG     1     -10.207  10.933  63.856  1.00  0.00     0.221 C 
HETATM   58  O   LIG     1      -9.643  11.039  62.773  1.00  0.00    -0.273 OA
HETATM   59  H   LIG     1     -11.795  11.488  65.058  1.00  0.00     0.162 HD
BRANCH  57  60
HETATM   60  C   LIG     1      -9.812   9.894  64.908  1.00  0.00     0.024 C 
HETATM   61  C   LIG     1      -8.470   9.220  64.580  1.00  0.00    -0.051 C 
HETATM   62  C   LIG     1      -7.263  10.118  64.859  1.00  0.00    -0.040 C 
HETATM   63  H   LIG     1      -8.445   8.905  63.529  1.00  0.00     0.034 H 
HETATM   64  H   LIG     1      -8.375   8.304  65.177  1.00  0.00     0.034 H 
HETATM   65  C   LIG     1      -7.273  10.688  66.275  1.00  0.00     0.035 C 
HETATM   66  H   LIG     1      -7.242  10.942  64.138  1.00  0.00     0.036 H 
HETATM   67  H   LIG     1      -6.350   9.530  64.703  1.00  0.00     0.036 H 
HETATM   68  C   LIG     1      -8.597  11.374  66.605  1.00  0.00    -0.040 C 
HETATM   69  H   LIG     1      -6.459  11.415  66.372  1.00  0.00     0.082 H 
HETATM   70  C   LIG     1      -9.810  10.491  66.319  1.00  0.00    -0.051 C 
HETATM   71  H   LIG     1      -8.682  12.300  66.025  1.00  0.00     0.036 H 
HETATM   72  H   LIG     1      -8.617  11.650  67.667  1.00  0.00     0.036 H 
HETATM   73  H   LIG     1     -10.712  11.084  66.506  1.00  0.00     0.034 H 
HETATM   74  H   LIG     1      -9.834   9.667  67.038  1.00  0.00     0.034 H 
HETATM   75  H   LIG     1     -10.590   9.116  64.861  1.00  0.00     0.054 H 
BRANCH  65  76
HETATM   76  O   LIG     1      -6.992   9.648  67.209  1.00  0.00    -0.396 OA
HETATM   77  H   LIG     1      -6.109   9.784  67.587  1.00  0.00     0.210 HD
ENDBRANCH  65  76
ENDBRANCH  57  60
ENDBRANCH  53  56
ENDBRANCH  50  53
ENDBRANCH  43  50
ENDBRANCH   1  41
TORSDOF 14
ENDMDL
MODEL 3
REMARK VINA RESULT:      -6.7      2.428      4.858
REMARK  14 active torsions:
REMARK  status: ('A' for Active; 'I' for Inactive)
REMARK    1  A    between atoms: N_1  and  S_2 
REMARK    2  A    between atoms: S_2  and  C_5 
REMARK    3  A    between atoms: C_8  and  C_9 
REMARK    4  A    between atoms: C_9  and  C_10 
REMARK    5  A    between atoms: C_14  and  N_15 
REMARK       I    between atoms: N_15  and  C_16 
REMARK    6  A    between atoms: C_16  and  C_18 
REMARK    7  A    between atoms: C_18  and  C_19 
REMARK    8  A    between atoms: C_18  and  C_21 
REMARK    9  A    between atoms: C_19  and  S_20 
REMARK   10  A    between atoms: C_23  and  C_24 
REMARK   11  A    between atoms: C_24  and  C_25 
REMARK   12  A    between atoms: C_25  and  N_26 
REMARK       I    between atoms: N_26  and  C_27 
REMARK   13  A    between atoms: C_27  and  C_29 
REMARK   14  A    between atoms: C_32  and  O_33 
ROOT
HETATM    1  C   LIG     1     -12.961  10.854  70.963  1.00  0.00     0.058 C 
HETATM    2  H   LIG     1     -13.922  10.664  70.457  1.00  0.00     0.063 H 
ENDROOT
BRANCH   1   3
HETATM    3  C   LIG     1     -11.918  10.368  69.947  1.00  0.00     0.231 C 
HETATM    4  N   LIG     1     -10.913   9.568  70.479  1.00  0.00    -0.327 N 
HETATM    5  H   LIG     1     -11.124   9.058  71.329  1.00  0.00     0.169 HD
HETATM    6  O   LIG     1     -11.968  10.702  68.764  1.00  0.00    -0.272 OA
BRANCH   4   7
HETATM    7  C   LIG     1      -9.804   9.122  69.729  1.00  0.00     0.035 A 
HETATM    8  C   LIG     1      -8.910   8.235  70.324  1.00  0.00    -0.057 A 
HETATM    9  C   LIG     1      -7.839   7.717  69.591  1.00  0.00    -0.080 A 
HETATM   10  H   LIG     1      -9.069   7.891  71.341  1.00  0.00     0.086 H 
HETATM   11  C   LIG     1      -7.607   8.153  68.288  1.00  0.00    -0.076 A 
HETATM   12  H   LIG     1      -7.183   6.972  70.033  1.00  0.00     0.083 H 
HETATM   13  C   LIG     1      -8.446   9.108  67.702  1.00  0.00    -0.052 A 
HETATM   14  H   LIG     1      -6.757   7.755  67.737  1.00  0.00     0.084 H 
HETATM   15  C   LIG     1      -9.564   9.560  68.423  1.00  0.00    -0.051 A 
HETATM   16  H   LIG     1     -10.229  10.288  67.962  1.00  0.00     0.087 H 
BRANCH  13  17
HETATM   17  C   LIG     1      -8.161   9.649  66.317  1.00  0.00    -0.017 C 
HETATM   18  H   LIG     1      -7.112   9.971  66.286  1.00  0.00     0.047 H 
HETATM   19  H   LIG     1      -8.247   8.851  65.569  1.00  0.00     0.047 H 
BRANCH  17  20
HETATM   20  C   LIG     1      -9.077  10.780  65.894  1.00  0.00    -0.054 A 
HETATM   21  C   LIG     1     -10.107  10.546  64.971  1.00  0.00    -0.075 A 
HETATM   22  C   LIG     1     -10.957  11.581  64.576  1.00  0.00    -0.060 A 
HETATM   23  H   LIG     1     -10.260   9.553  64.553  1.00  0.00     0.084 H 
HETATM   24  C   LIG     1     -10.778  12.865  65.103  1.00  0.00     0.074 A 
HETATM   25  H   LIG     1     -11.757  11.377  63.869  1.00  0.00     0.085 H 
HETATM   26  C   LIG     1      -9.768  13.114  66.031  1.00  0.00    -0.060 A 
HETATM   27  C   LIG     1      -8.921  12.073  66.425  1.00  0.00    -0.075 A 
HETATM   28  H   LIG     1      -9.634  14.108  66.455  1.00  0.00     0.085 H 
HETATM   29  H   LIG     1      -8.133  12.271  67.150  1.00  0.00     0.084 H 
BRANCH  24  30
HETATM   30  S   LIG     1     -11.880  14.154  64.601  1.00  0.00     0.239 S 
HETATM   31  O   LIG     1     -11.116  15.378  64.456  1.00  0.00    -0.206 OA
HETATM   32  O   LIG     1     -13.089  14.085  65.371  1.00  0.00    -0.206 OA
BRANCH  30  33
HETATM   33  N   LIG     1     -12.320  13.703  63.043  1.00  0.00    -0.225 NA
HETATM   34  H   LIG     1     -11.480  13.499  62.499  1.00  0.00     0.136 HD
HETATM   35  H   LIG     1     -12.890  14.447  62.633  1.00  0.00     0.136 HD
ENDBRANCH  30  33
ENDBRANCH  24  30
ENDBRANCH  17  20
ENDBRANCH  13  17
ENDBRANCH   4   7
ENDBRANCH   1   3
BRANCH   1  36
HETATM   36  C   LIG     1     -13.000   9.968  72.232  1.00  0.00    -0.011 C 
HETATM   37  H   LIG     1     -13.328  10.576  73.083  1.00  0.00     0.050 H 
HETATM   38  H   LIG     1     -11.992   9.610  72.461  1.00  0.00     0.050 H 
BRANCH  36  39
HETATM   39  S   LIG     1     -14.086   8.496  72.214  1.00  0.00    -0.181 SA
HETATM   40  H   LIG     1     -13.098   7.594  72.053  1.00  0.00     0.101 HD
ENDBRANCH  36  39
ENDBRANCH   1  36
BRANCH   1  41
HETATM   41  C   LIG     1     -12.901  12.343  71.254  1.00  0.00    -0.026 A 
HETATM   42  C   LIG     1     -12.268  13.253  70.401  1.00  0.00    -0.067 A 
HETATM   43  C   LIG     1     -12.264  14.619  70.700  1.00  0.00    -0.038 A 
HETATM   44  H   LIG     1     -11.774  12.902  69.497  1.00  0.00     0.085 H 
HETATM   45  C   LIG     1     -12.897  15.021  71.869  1.00  0.00     0.008 A 
HETATM   46  N   LIG     1     -13.530  14.180  72.710  1.00  0.00    -0.272 NA
HETATM   47  H   LIG     1     -12.925  16.066  72.166  1.00  0.00     0.115 H 
HETATM   48  C   LIG     1     -13.510  12.868  72.394  1.00  0.00     0.009 A 
HETATM   49  H   LIG     1     -14.033  12.241  73.112  1.00  0.00     0.115 H 
BRANCH  43  50
HETATM   50  C   LIG     1     -11.593  15.626  69.803  1.00  0.00    -0.025 C 
HETATM   51  H   LIG     1     -10.588  15.854  70.180  1.00  0.00     0.042 H 
HETATM   52  H   LIG     1     -12.169  16.558  69.854  1.00  0.00     0.042 H 
BRANCH  50  53
HETATM   53  C   LIG     1     -11.492  15.175  68.340  1.00  0.00    -0.001 C 
HETATM   54  H   LIG     1     -12.492  14.949  67.958  1.00  0.00     0.064 H 
HETATM   55  H   LIG     1     -10.894  14.262  68.245  1.00  0.00     0.064 H 
BRANCH  53  56
HETATM   56  N   LIG     1     -10.868  16.172  67.490  1.00  0.00    -0.360 N 
HETATM   57  C   LIG     1      -9.507  16.397  67.518  1.00  0.00     0.221 C 
HETATM   58  O   LIG     1      -8.734  15.712  68.179  1.00  0.00    -0.273 OA
HETATM   59  H   LIG     1     -11.468  16.863  67.058  1.00  0.00     0.162 HD
BRANCH  57  60
HETATM   60  C   LIG     1      -9.056  17.591  66.674  1.00  0.00     0.024 C 
HETATM   61  C   LIG     1     -10.246  18.414  66.154  1.00  0.00    -0.051 C 
HETATM   62  C   LIG     1     -10.893  19.284  67.233  1.00  0.00    -0.040 C 
HETATM   63  H   LIG     1     -11.010  17.754  65.721  1.00  0.00     0.034 H 
HETATM   64  H   LIG     1      -9.903  19.061  65.336  1.00  0.00     0.034 H 
HETATM   65  C   LIG     1      -9.881  20.162  67.962  1.00  0.00     0.035 C 
HETATM   66  H   LIG     1     -11.408  18.646  67.961  1.00  0.00     0.036 H 
HETATM   67  H   LIG     1     -11.657  19.913  66.761  1.00  0.00     0.036 H 
HETATM   68  C   LIG     1      -8.701  19.352  68.497  1.00  0.00    -0.040 C 
HETATM   69  H   LIG     1     -10.379  20.663  68.799  1.00  0.00     0.082 H 
HETATM   70  C   LIG     1      -8.055  18.470  67.430  1.00  0.00    -0.051 C 
HETATM   71  H   LIG     1      -9.039  18.721  69.327  1.00  0.00     0.036 H 
HETATM   72  H   LIG     1      -7.934  20.029  68.893  1.00  0.00     0.036 H 
HETATM   73  H   LIG     1      -7.277  17.869  67.913  1.00  0.00     0.034 H 
HETATM   74  H   LIG     1      -7.539  19.104  66.702  1.00  0.00     0.034 H 
HETATM   75  H   LIG     1      -8.548  17.160  65.799  1.00  0.00     0.054 H 
BRANCH  65  76
HETATM   76  O   LIG     1      -9.432  21.196  67.089  1.00  0.00    -0.396 OA
HETATM   77  H   LIG     1      -8.466  21.153  67.008  1.00  0.00     0.210 HD
ENDBRANCH  65  76
ENDBRANCH  57  60
ENDBRANCH  53  56
ENDBRANCH  50  53
ENDBRANCH  43  50
ENDBRANCH   1  41
TORSDOF 14
ENDMDL
MODEL 4
REMARK VINA RESULT:      -6.1      3.105      8.678
REMARK  14 active torsions:
REMARK  status: ('A' for Active; 'I' for Inactive)
REMARK    1  A    between atoms: N_1  and  S_2 
REMARK    2  A    between atoms: S_2  and  C_5 
REMARK    3  A    between atoms: C_8  and  C_9 
REMARK    4  A    between atoms: C_9  and  C_10 
REMARK    5  A    between atoms: C_14  and  N_15 
REMARK       I    between atoms: N_15  and  C_16 
REMARK    6  A    between atoms: C_16  and  C_18 
REMARK    7  A    between atoms: C_18  and  C_19 
REMARK    8  A    between atoms: C_18  and  C_21 
REMARK    9  A    between atoms: C_19  and  S_20 
REMARK   10  A    between atoms: C_23  and  C_24 
REMARK   11  A    between atoms: C_24  and  C_25 
REMARK   12  A    between atoms: C_25  and  N_26 
REMARK       I    between atoms: N_26  and  C_27 
REMARK   13  A    between atoms: C_27  and  C_29 
REMARK   14  A    between atoms: C_32  and  O_33 
ROOT
HETATM    1  C   LIG     1      -9.489  11.616  66.483  1.00  0.00     0.058 C 
HETATM    2  H   LIG     1      -8.511  12.114  66.584  1.00  0.00     0.063 H 
ENDROOT
BRANCH   1   3
HETATM    3  C   LIG     1      -9.959  11.450  67.935  1.00  0.00     0.231 C 
HETATM    4  N   LIG     1     -11.316  11.675  68.139  1.00  0.00    -0.327 N 
HETATM    5  H   LIG     1     -11.934  11.541  67.348  1.00  0.00     0.169 HD
HETATM    6  O   LIG     1      -9.171  11.172  68.838  1.00  0.00    -0.272 OA
BRANCH   4   7
HETATM    7  C   LIG     1     -11.912  11.684  69.418  1.00  0.00     0.035 A 
HETATM    8  C   LIG     1     -12.131  12.909  70.042  1.00  0.00    -0.057 A 
HETATM    9  C   LIG     1     -12.782  12.964  71.278  1.00  0.00    -0.080 A 
HETATM   10  H   LIG     1     -11.854  13.836  69.551  1.00  0.00     0.086 H 
HETATM   11  C   LIG     1     -13.138  11.787  71.934  1.00  0.00    -0.076 A 
HETATM   12  H   LIG     1     -13.015  13.923  71.732  1.00  0.00     0.083 H 
HETATM   13  C   LIG     1     -12.850  10.543  71.360  1.00  0.00    -0.052 A 
HETATM   14  H   LIG     1     -13.626  11.845  72.905  1.00  0.00     0.084 H 
HETATM   15  C   LIG     1     -12.267  10.505  70.083  1.00  0.00    -0.051 A 
HETATM   16  H   LIG     1     -12.060   9.540  69.625  1.00  0.00     0.087 H 
BRANCH  13  17
HETATM   17  C   LIG     1     -13.158   9.256  72.096  1.00  0.00    -0.017 C 
HETATM   18  H   LIG     1     -13.253   9.488  73.165  1.00  0.00     0.047 H 
HETATM   19  H   LIG     1     -14.138   8.865  71.791  1.00  0.00     0.047 H 
BRANCH  17  20
HETATM   20  C   LIG     1     -12.135   8.158  71.880  1.00  0.00    -0.054 A 
HETATM   21  C   LIG     1     -10.909   8.194  72.560  1.00  0.00    -0.075 A 
HETATM   22  C   LIG     1      -9.960   7.187  72.369  1.00  0.00    -0.060 A 
HETATM   23  H   LIG     1     -10.681   9.006  73.248  1.00  0.00     0.084 H 
HETATM   24  C   LIG     1     -10.235   6.134  71.489  1.00  0.00     0.074 A 
HETATM   25  H   LIG     1      -9.020   7.225  72.913  1.00  0.00     0.085 H 
HETATM   26  C   LIG     1     -11.453   6.074  70.815  1.00  0.00    -0.060 A 
HETATM   27  C   LIG     1     -12.401   7.084  71.012  1.00  0.00    -0.075 A 
HETATM   28  H   LIG     1     -11.678   5.249  70.141  1.00  0.00     0.085 H 
HETATM   29  H   LIG     1     -13.352   7.035  70.484  1.00  0.00     0.084 H 
BRANCH  24  30
HETATM   30  S   LIG     1      -9.025   4.860  71.279  1.00  0.00     0.239 S 
HETATM   31  O   LIG     1      -7.844   5.446  70.674  1.00  0.00    -0.206 OA
HETATM   32  O   LIG     1      -9.652   3.677  70.762  1.00  0.00    -0.206 OA
BRANCH  30  33
HETATM   33  N   LIG     1      -8.589   4.477  72.856  1.00  0.00    -0.225 NA
HETATM   34  H   LIG     1      -9.234   3.777  73.226  1.00  0.00     0.136 HD
HETATM   35  H   LIG     1      -8.573   5.336  73.411  1.00  0.00     0.136 HD
ENDBRANCH  30  33
ENDBRANCH  24  30
ENDBRANCH  17  20
ENDBRANCH  13  17
ENDBRANCH   4   7
ENDBRANCH   1   3
BRANCH   1  36
HETATM   36  C   LIG     1      -9.175  10.258  65.810  1.00  0.00    -0.011 C 
HETATM   37  H   LIG     1      -8.094  10.080  65.849  1.00  0.00     0.050 H 
HETATM   38  H   LIG     1      -9.456  10.299  64.753  1.00  0.00     0.050 H 
BRANCH  36  39
HETATM   39  S   LIG     1      -9.959   8.758  66.503  1.00  0.00    -0.181 SA
HETATM   40  H   LIG     1      -9.202   7.876  65.821  1.00  0.00     0.101 HD
ENDBRANCH  36  39
ENDBRANCH   1  36
BRANCH   1  41
HETATM   41  C   LIG     1     -10.366  12.529  65.645  1.00  0.00    -0.026 A 
HETATM   42  C   LIG     1     -10.240  13.923  65.666  1.00  0.00    -0.067 A 
HETATM   43  C   LIG     1     -11.054  14.719  64.853  1.00  0.00    -0.038 A 
HETATM   44  H   LIG     1      -9.506  14.396  66.315  1.00  0.00     0.085 H 
HETATM   45  C   LIG     1     -11.983  14.074  64.048  1.00  0.00     0.008 A 
HETATM   46  N   LIG     1     -12.127  12.736  63.988  1.00  0.00    -0.272 NA
HETATM   47  H   LIG     1     -12.652  14.632  63.398  1.00  0.00     0.115 H 
HETATM   48  C   LIG     1     -11.330  11.998  64.789  1.00  0.00     0.009 A 
HETATM   49  H   LIG     1     -11.496  10.926  64.698  1.00  0.00     0.115 H 
BRANCH  43  50
HETATM   50  C   LIG     1     -10.943  16.222  64.850  1.00  0.00    -0.025 C 
HETATM   51  H   LIG     1     -11.930  16.670  64.687  1.00  0.00     0.042 H 
HETATM   52  H   LIG     1     -10.319  16.511  63.995  1.00  0.00     0.042 H 
BRANCH  50  53
HETATM   53  C   LIG     1     -10.335  16.797  66.136  1.00  0.00    -0.001 C 
HETATM   54  H   LIG     1     -10.079  15.978  66.816  1.00  0.00     0.064 H 
HETATM   55  H   LIG     1     -11.048  17.443  66.659  1.00  0.00     0.064 H 
BRANCH  53  56
HETATM   56  N   LIG     1      -9.153  17.599  65.884  1.00  0.00    -0.360 N 
HETATM   57  C   LIG     1      -8.944  18.802  66.527  1.00  0.00     0.221 C 
HETATM   58  O   LIG     1      -9.683  19.218  67.412  1.00  0.00    -0.273 OA
HETATM   59  H   LIG     1      -8.608  17.386  65.058  1.00  0.00     0.162 HD
BRANCH  57  60
HETATM   60  C   LIG     1      -7.729  19.578  66.015  1.00  0.00     0.024 C 
HETATM   61  C   LIG     1      -7.208  20.586  67.053  1.00  0.00    -0.051 C 
HETATM   62  C   LIG     1      -6.438  19.925  68.199  1.00  0.00    -0.040 C 
HETATM   63  H   LIG     1      -8.037  21.171  67.472  1.00  0.00     0.034 H 
HETATM   64  H   LIG     1      -6.548  21.306  66.552  1.00  0.00     0.034 H 
HETATM   65  C   LIG     1      -5.326  19.005  67.703  1.00  0.00     0.035 C 
HETATM   66  H   LIG     1      -7.130  19.350  68.824  1.00  0.00     0.036 H 
HETATM   67  H   LIG     1      -6.013  20.713  68.831  1.00  0.00     0.036 H 
HETATM   68  C   LIG     1      -5.836  17.990  66.682  1.00  0.00    -0.040 C 
HETATM   69  H   LIG     1      -4.898  18.469  68.557  1.00  0.00     0.082 H 
HETATM   70  C   LIG     1      -6.617  18.637  65.540  1.00  0.00    -0.051 C 
HETATM   71  H   LIG     1      -6.479  17.259  67.186  1.00  0.00     0.036 H 
HETATM   72  H   LIG     1      -4.991  17.440  66.251  1.00  0.00     0.036 H 
HETATM   73  H   LIG     1      -7.012  17.838  64.903  1.00  0.00     0.034 H 
HETATM   74  H   LIG     1      -5.929  19.212  64.913  1.00  0.00     0.034 H 
HETATM   75  H   LIG     1      -8.089  20.155  65.150  1.00  0.00     0.054 H 
BRANCH  65  76
HETATM   76  O   LIG     1      -4.269  19.789  67.153  1.00  0.00    -0.396 OA
HETATM   77  H   LIG     1      -3.919  20.383  67.836  1.00  0.00     0.210 HD
ENDBRANCH  65  76
ENDBRANCH  57  60
ENDBRANCH  53  56
ENDBRANCH  50  53
ENDBRANCH  43  50
ENDBRANCH   1  41
TORSDOF 14
ENDMDL
MODEL 5
REMARK VINA RESULT:      -5.5      3.611      9.081
REMARK  14 active torsions:
REMARK  status: ('A' for Active; 'I' for Inactive)
REMARK    1  A    between atoms: N_1  and  S_2 
REMARK    2  A    between atoms: S_2  and  C_5 
REMARK    3  A    between atoms: C_8  and  C_9 
REMARK    4  A    between atoms: C_9  and  C_10 
REMARK    5  A    between atoms: C_14  and  N_15 
REMARK       I    between atoms: N_15  and  C_16 
REMARK    6  A    between atoms: C_16  and  C_18 
REMARK    7  A    between atoms: C_18  and  C_19 
REMARK    8  A    between atoms: C_18  and  C_21 
REMARK    9  A    between atoms: C_19  and  S_20 
REMARK   10  A    between atoms: C_23  and  C_24 
REMARK   11  A    between atoms: C_24  and  C_25 
REMARK   12  A    between atoms: C_25  and  N_26 
REMARK       I    between atoms: N_26  and  C_27 
REMARK   13  A    between atoms: C_27  and  C_29 
REMARK   14  A    between atoms: C_32  and  O_33 
ROOT
HETATM    1  C   LIG     1      -9.542  12.373  66.814  1.00  0.00     0.058 C 
HETATM    2  H   LIG     1      -8.889  11.531  66.532  1.00  0.00     0.063 H 
ENDROOT
BRANCH   1   3
HETATM    3  C   LIG     1     -10.168  11.915  68.139  1.00  0.00     0.231 C 
HETATM    4  N   LIG     1     -11.360  12.549  68.471  1.00  0.00    -0.327 N 
HETATM    5  H   LIG     1     -11.911  12.932  67.712  1.00  0.00     0.169 HD
HETATM    6  O   LIG     1      -9.622  11.074  68.852  1.00  0.00    -0.272 OA
BRANCH   4   7
HETATM    7  C   LIG     1     -12.024  12.347  69.700  1.00  0.00     0.035 A 
HETATM    8  C   LIG     1     -12.339  13.459  70.477  1.00  0.00    -0.057 A 
HETATM    9  C   LIG     1     -13.057  13.306  71.666  1.00  0.00    -0.080 A 
HETATM   10  H   LIG     1     -12.084  14.458  70.140  1.00  0.00     0.086 H 
HETATM   11  C   LIG     1     -13.386  12.033  72.127  1.00  0.00    -0.076 A 
HETATM   12  H   LIG     1     -13.363  14.179  72.237  1.00  0.00     0.083 H 
HETATM   13  C   LIG     1     -13.004  10.898  71.401  1.00  0.00    -0.052 A 
HETATM   14  H   LIG     1     -13.928  11.929  73.065  1.00  0.00     0.084 H 
HETATM   15  C   LIG     1     -12.353  11.071  70.169  1.00  0.00    -0.051 A 
HETATM   16  H   LIG     1     -12.072  10.191  69.592  1.00  0.00     0.087 H 
BRANCH  13  17
HETATM   17  C   LIG     1     -13.285   9.507  71.927  1.00  0.00    -0.017 C 
HETATM   18  H   LIG     1     -13.453   9.579  73.009  1.00  0.00     0.047 H 
HETATM   19  H   LIG     1     -14.223   9.121  71.508  1.00  0.00     0.047 H 
BRANCH  17  20
HETATM   20  C   LIG     1     -12.194   8.498  71.625  1.00  0.00    -0.054 A 
HETATM   21  C   LIG     1     -10.860   8.785  71.949  1.00  0.00    -0.075 A 
HETATM   22  C   LIG     1      -9.848   7.862  71.676  1.00  0.00    -0.060 A 
HETATM   23  H   LIG     1     -10.595   9.729  72.420  1.00  0.00     0.084 H 
HETATM   24  C   LIG     1     -10.168   6.641  71.071  1.00  0.00     0.074 A 
HETATM   25  H   LIG     1      -8.821   8.097  71.945  1.00  0.00     0.085 H 
HETATM   26  C   LIG     1     -11.490   6.333  70.754  1.00  0.00    -0.060 A 
HETATM   27  C   LIG     1     -12.499   7.260  71.032  1.00  0.00    -0.075 A 
HETATM   28  H   LIG     1     -11.745   5.379  70.297  1.00  0.00     0.085 H 
HETATM   29  H   LIG     1     -13.531   7.017  70.783  1.00  0.00     0.084 H 
BRANCH  24  30
HETATM   30  S   LIG     1      -8.870   5.481  70.753  1.00  0.00     0.239 S 
HETATM   31  O   LIG     1      -8.542   4.811  71.997  1.00  0.00    -0.206 OA
HETATM   32  O   LIG     1      -7.874   6.085  69.915  1.00  0.00    -0.206 OA
BRANCH  30  33
HETATM   33  N   LIG     1      -9.615   4.321  69.792  1.00  0.00    -0.225 NA
HETATM   34  H   LIG     1      -9.371   3.390  70.133  1.00  0.00     0.136 HD
HETATM   35  H   LIG     1      -9.339   4.474  68.819  1.00  0.00     0.136 HD
ENDBRANCH  30  33
ENDBRANCH  24  30
ENDBRANCH  17  20
ENDBRANCH  13  17
ENDBRANCH   4   7
ENDBRANCH   1   3
BRANCH   1  36
HETATM   36  C   LIG     1     -10.584  12.467  65.674  1.00  0.00    -0.011 C 
HETATM   37  H   LIG     1     -10.625  13.499  65.309  1.00  0.00     0.050 H 
HETATM   38  H   LIG     1     -11.577  12.223  66.063  1.00  0.00     0.050 H 
BRANCH  36  39
HETATM   39  S   LIG     1     -10.331  11.418  64.196  1.00  0.00    -0.181 SA
HETATM   40  H   LIG     1      -9.465  10.563  64.777  1.00  0.00     0.101 HD
ENDBRANCH  36  39
ENDBRANCH   1  36
BRANCH   1  41
HETATM   41  C   LIG     1      -8.654  13.599  66.936  1.00  0.00    -0.026 A 
HETATM   42  C   LIG     1      -9.069  14.873  66.534  1.00  0.00    -0.067 A 
HETATM   43  C   LIG     1      -8.223  15.976  66.692  1.00  0.00    -0.038 A 
HETATM   44  H   LIG     1     -10.054  15.014  66.094  1.00  0.00     0.085 H 
HETATM   45  C   LIG     1      -6.970  15.749  67.248  1.00  0.00     0.008 A 
HETATM   46  N   LIG     1      -6.538  14.542  67.662  1.00  0.00    -0.272 NA
HETATM   47  H   LIG     1      -6.261  16.559  67.393  1.00  0.00     0.115 H 
HETATM   48  C   LIG     1      -7.377  13.499  67.489  1.00  0.00     0.009 A 
HETATM   49  H   LIG     1      -6.970  12.552  67.838  1.00  0.00     0.115 H 
BRANCH  43  50
HETATM   50  C   LIG     1      -8.638  17.362  66.271  1.00  0.00    -0.025 C 
HETATM   51  H   LIG     1      -9.528  17.308  65.632  1.00  0.00     0.042 H 
HETATM   52  H   LIG     1      -7.833  17.781  65.656  1.00  0.00     0.042 H 
BRANCH  50  53
HETATM   53  C   LIG     1      -8.918  18.305  67.448  1.00  0.00    -0.001 C 
HETATM   54  H   LIG     1      -8.847  17.747  68.387  1.00  0.00     0.064 H 
HETATM   55  H   LIG     1      -9.931  18.720  67.393  1.00  0.00     0.064 H 
BRANCH  53  56
HETATM   56  N   LIG     1      -8.007  19.433  67.489  1.00  0.00    -0.360 N 
HETATM   57  C   LIG     1      -7.008  19.522  68.436  1.00  0.00     0.221 C 
HETATM   58  O   LIG     1      -6.765  18.620  69.231  1.00  0.00    -0.273 OA
HETATM   59  H   LIG     1      -8.265  20.264  66.972  1.00  0.00     0.162 HD
BRANCH  57  60
HETATM   60  C   LIG     1      -6.254  20.853  68.422  1.00  0.00     0.024 C 
HETATM   61  C   LIG     1      -5.008  20.821  69.321  1.00  0.00    -0.051 C 
HETATM   62  C   LIG     1      -3.846  20.035  68.710  1.00  0.00    -0.040 C 
HETATM   63  H   LIG     1      -5.251  20.393  70.302  1.00  0.00     0.034 H 
HETATM   64  H   LIG     1      -4.677  21.851  69.510  1.00  0.00     0.034 H 
HETATM   65  C   LIG     1      -3.506  20.497  67.296  1.00  0.00     0.035 C 
HETATM   66  H   LIG     1      -4.093  18.967  68.691  1.00  0.00     0.036 H 
HETATM   67  H   LIG     1      -2.969  20.150  69.358  1.00  0.00     0.036 H 
HETATM   68  C   LIG     1      -4.735  20.518  66.390  1.00  0.00    -0.040 C 
HETATM   69  H   LIG     1      -2.758  19.820  66.868  1.00  0.00     0.082 H 
HETATM   70  C   LIG     1      -5.906  21.290  66.995  1.00  0.00    -0.051 C 
HETATM   71  H   LIG     1      -5.053  19.489  66.184  1.00  0.00     0.036 H 
HETATM   72  H   LIG     1      -4.481  20.980  65.428  1.00  0.00     0.036 H 
HETATM   73  H   LIG     1      -6.765  21.187  66.323  1.00  0.00     0.034 H 
HETATM   74  H   LIG     1      -5.663  22.357  67.015  1.00  0.00     0.034 H 
HETATM   75  H   LIG     1      -6.949  21.591  68.851  1.00  0.00     0.054 H 
BRANCH  65  76
HETATM   76  O   LIG     1      -2.894  21.784  67.350  1.00  0.00    -0.396 OA
HETATM   77  H   LIG     1      -2.552  22.015  66.472  1.00  0.00     0.210 HD
ENDBRANCH  65  76
ENDBRANCH  57  60
ENDBRANCH  53  56
ENDBRANCH  50  53
ENDBRANCH  43  50
ENDBRANCH   1  41
TORSDOF 14
ENDMDL
MODEL 6
REMARK VINA RESULT:      -5.3      4.151      7.475
REMARK  14 active torsions:
REMARK  status: ('A' for Active; 'I' for Inactive)
REMARK    1  A    between atoms: N_1  and  S_2 
REMARK    2  A    between atoms: S_2  and  C_5 
REMARK    3  A    between atoms: C_8  and  C_9 
REMARK    4  A    between atoms: C_9  and  C_10 
REMARK    5  A    between atoms: C_14  and  N_15 
REMARK       I    between atoms: N_15  and  C_16 
REMARK    6  A    between atoms: C_16  and  C_18 
REMARK    7  A    between atoms: C_18  and  C_19 
REMARK    8  A    between atoms: C_18  and  C_21 
REMARK    9  A    between atoms: C_19  and  S_20 
REMARK   10  A    between atoms: C_23  and  C_24 
REMARK   11  A    between atoms: C_24  and  C_25 
REMARK   12  A    between atoms: C_25  and  N_26 
REMARK       I    between atoms: N_26  and  C_27 
REMARK   13  A    between atoms: C_27  and  C_29 
REMARK   14  A    between atoms: C_32  and  O_33 
ROOT
HETATM    1  C   LIG     1     -10.872  14.438  68.505  1.00  0.00     0.058 C 
HETATM    2  H   LIG     1     -10.260  13.991  69.306  1.00  0.00     0.063 H 
ENDROOT
BRANCH   1   3
HETATM    3  C   LIG     1     -10.027  15.628  68.028  1.00  0.00     0.231 C 
HETATM    4  N   LIG     1     -10.483  16.872  68.447  1.00  0.00    -0.327 N 
HETATM    5  H   LIG     1     -11.040  16.904  69.292  1.00  0.00     0.169 HD
HETATM    6  O   LIG     1      -9.046  15.470  67.303  1.00  0.00    -0.272 OA
BRANCH   4   7
HETATM    7  C   LIG     1      -9.910  18.088  68.017  1.00  0.00     0.035 A 
HETATM    8  C   LIG     1     -10.627  18.885  67.127  1.00  0.00    -0.057 A 
HETATM    9  C   LIG     1     -10.124  20.128  66.733  1.00  0.00    -0.080 A 
HETATM   10  H   LIG     1     -11.608  18.578  66.779  1.00  0.00     0.086 H 
HETATM   11  C   LIG     1      -8.862  20.539  67.157  1.00  0.00    -0.076 A 
HETATM   12  H   LIG     1     -10.714  20.779  66.094  1.00  0.00     0.083 H 
HETATM   13  C   LIG     1      -8.090  19.713  67.984  1.00  0.00    -0.052 A 
HETATM   14  H   LIG     1      -8.475  21.501  66.825  1.00  0.00     0.084 H 
HETATM   15  C   LIG     1      -8.642  18.503  68.436  1.00  0.00    -0.051 A 
HETATM   16  H   LIG     1      -8.052  17.868  69.095  1.00  0.00     0.087 H 
BRANCH  13  17
HETATM   17  C   LIG     1      -6.687  20.111  68.389  1.00  0.00    -0.017 C 
HETATM   18  H   LIG     1      -6.745  21.059  68.939  1.00  0.00     0.047 H 
HETATM   19  H   LIG     1      -6.272  19.383  69.098  1.00  0.00     0.047 H 
BRANCH  17  20
HETATM   20  C   LIG     1      -5.718  20.229  67.229  1.00  0.00    -0.054 A 
HETATM   21  C   LIG     1      -5.337  19.087  66.509  1.00  0.00    -0.075 A 
HETATM   22  C   LIG     1      -4.446  19.186  65.438  1.00  0.00    -0.060 A 
HETATM   23  H   LIG     1      -5.732  18.109  66.774  1.00  0.00     0.084 H 
HETATM   24  C   LIG     1      -3.927  20.436  65.081  1.00  0.00     0.074 A 
HETATM   25  H   LIG     1      -4.171  18.292  64.885  1.00  0.00     0.085 H 
HETATM   26  C   LIG     1      -4.305  21.584  65.776  1.00  0.00    -0.060 A 
HETATM   27  C   LIG     1      -5.199  21.479  66.846  1.00  0.00    -0.075 A 
HETATM   28  H   LIG     1      -3.915  22.560  65.493  1.00  0.00     0.085 H 
HETATM   29  H   LIG     1      -5.492  22.378  67.387  1.00  0.00     0.084 H 
BRANCH  24  30
HETATM   30  S   LIG     1      -2.816  20.537  63.708  1.00  0.00     0.239 S 
HETATM   31  O   LIG     1      -2.063  21.772  63.819  1.00  0.00    -0.206 OA
HETATM   32  O   LIG     1      -3.497  20.153  62.504  1.00  0.00    -0.206 OA
BRANCH  30  33
HETATM   33  N   LIG     1      -1.716  19.303  64.008  1.00  0.00    -0.225 NA
HETATM   34  H   LIG     1      -2.177  18.400  63.884  1.00  0.00     0.136 HD
HETATM   35  H   LIG     1      -1.329  19.427  64.947  1.00  0.00     0.136 HD
ENDBRANCH  30  33
ENDBRANCH  24  30
ENDBRANCH  17  20
ENDBRANCH  13  17
ENDBRANCH   4   7
ENDBRANCH   1   3
BRANCH   1  36
HETATM   36  C   LIG     1     -12.176  14.888  69.206  1.00  0.00    -0.011 C 
HETATM   37  H   LIG     1     -13.033  14.442  68.690  1.00  0.00     0.050 H 
HETATM   38  H   LIG     1     -12.280  15.974  69.125  1.00  0.00     0.050 H 
BRANCH  36  39
HETATM   39  S   LIG     1     -12.381  14.474  70.977  1.00  0.00    -0.181 SA
HETATM   40  H   LIG     1     -13.068  13.332  70.775  1.00  0.00     0.101 HD
ENDBRANCH  36  39
ENDBRANCH   1  36
BRANCH   1  41
HETATM   41  C   LIG     1     -11.080  13.361  67.455  1.00  0.00    -0.026 A 
HETATM   42  C   LIG     1     -10.606  12.053  67.612  1.00  0.00    -0.067 A 
HETATM   43  C   LIG     1     -10.848  11.090  66.628  1.00  0.00    -0.038 A 
HETATM   44  H   LIG     1     -10.046  11.778  68.503  1.00  0.00     0.085 H 
HETATM   45  C   LIG     1     -11.557  11.487  65.502  1.00  0.00     0.008 A 
HETATM   46  N   LIG     1     -12.043  12.730  65.318  1.00  0.00    -0.272 NA
HETATM   47  H   LIG     1     -11.774  10.791  64.695  1.00  0.00     0.115 H 
HETATM   48  C   LIG     1     -11.787  13.637  66.285  1.00  0.00     0.009 A 
HETATM   49  H   LIG     1     -12.200  14.621  66.077  1.00  0.00     0.115 H 
BRANCH  43  50
HETATM   50  C   LIG     1     -10.353   9.673  66.766  1.00  0.00    -0.025 C 
HETATM   51  H   LIG     1      -9.568   9.476  66.026  1.00  0.00     0.042 H 
HETATM   52  H   LIG     1     -11.187   9.002  66.528  1.00  0.00     0.042 H 
BRANCH  50  53
HETATM   53  C   LIG     1      -9.821   9.341  68.166  1.00  0.00    -0.001 C 
HETATM   54  H   LIG     1      -9.805  10.250  68.775  1.00  0.00     0.064 H 
HETATM   55  H   LIG     1      -8.794   8.961  68.122  1.00  0.00     0.064 H 
BRANCH  53  56
HETATM   56  N   LIG     1     -10.612   8.327  68.838  1.00  0.00    -0.360 N 
HETATM   57  C   LIG     1     -10.056   7.137  69.259  1.00  0.00     0.221 C 
HETATM   58  O   LIG     1      -8.855   6.902  69.183  1.00  0.00    -0.273 OA
HETATM   59  H   LIG     1     -11.619   8.400  68.776  1.00  0.00     0.162 HD
BRANCH  57  60
HETATM   60  C   LIG     1     -11.074   6.131  69.799  1.00  0.00     0.024 C 
HETATM   61  C   LIG     1     -10.398   4.964  70.538  1.00  0.00    -0.051 C 
HETATM   62  C   LIG     1      -9.883   5.350  71.926  1.00  0.00    -0.040 C 
HETATM   63  H   LIG     1      -9.565   4.565  69.946  1.00  0.00     0.034 H 
HETATM   64  H   LIG     1     -11.119   4.143  70.644  1.00  0.00     0.034 H 
HETATM   65  C   LIG     1     -10.955   6.012  72.786  1.00  0.00     0.035 C 
HETATM   66  H   LIG     1      -9.029   6.030  71.826  1.00  0.00     0.036 H 
HETATM   67  H   LIG     1      -9.515   4.445  72.424  1.00  0.00     0.036 H 
HETATM   68  C   LIG     1     -11.623   7.183  72.067  1.00  0.00    -0.040 C 
HETATM   69  H   LIG     1     -10.497   6.376  73.712  1.00  0.00     0.082 H 
HETATM   70  C   LIG     1     -12.131   6.812  70.675  1.00  0.00    -0.051 C 
HETATM   71  H   LIG     1     -10.910   8.011  71.979  1.00  0.00     0.036 H 
HETATM   72  H   LIG     1     -12.473   7.545  72.657  1.00  0.00     0.036 H 
HETATM   73  H   LIG     1     -12.519   7.721  70.202  1.00  0.00     0.034 H 
HETATM   74  H   LIG     1     -12.984   6.133  70.771  1.00  0.00     0.034 H 
HETATM   75  H   LIG     1     -11.575   5.712  68.914  1.00  0.00     0.054 H 
BRANCH  65  76
HETATM   76  O   LIG     1     -11.922   5.038  73.175  1.00  0.00    -0.396 OA
HETATM   77  H   LIG     1     -11.468   4.256  73.526  1.00  0.00     0.210 HD
ENDBRANCH  65  76
ENDBRANCH  57  60
ENDBRANCH  53  56
ENDBRANCH  50  53
ENDBRANCH  43  50
ENDBRANCH   1  41
TORSDOF 14
ENDMDL
MODEL 7
REMARK VINA RESULT:      -5.2      5.074      7.447
REMARK  14 active torsions:
REMARK  status: ('A' for Active; 'I' for Inactive)
REMARK    1  A    between atoms: N_1  and  S_2 
REMARK    2  A    between atoms: S_2  and  C_5 
REMARK    3  A    between atoms: C_8  and  C_9 
REMARK    4  A    between atoms: C_9  and  C_10 
REMARK    5  A    between atoms: C_14  and  N_15 
REMARK       I    between atoms: N_15  and  C_16 
REMARK    6  A    between atoms: C_16  and  C_18 
REMARK    7  A    between atoms: C_18  and  C_19 
REMARK    8  A    between atoms: C_18  and  C_21 
REMARK    9  A    between atoms: C_19  and  S_20 
REMARK   10  A    between atoms: C_23  and  C_24 
REMARK   11  A    between atoms: C_24  and  C_25 
REMARK   12  A    between atoms: C_25  and  N_26 
REMARK       I    between atoms: N_26  and  C_27 
REMARK   13  A    between atoms: C_27  and  C_29 
REMARK   14  A    between atoms: C_32  and  O_33 
ROOT
HETATM    1  C   LIG     1     -10.740  14.039  67.094  1.00  0.00     0.058 C 
HETATM    2  H   LIG     1      -9.981  13.523  67.704  1.00  0.00     0.063 H 
ENDROOT
BRANCH   1   3
HETATM    3  C   LIG     1     -10.096  15.399  66.791  1.00  0.00     0.231 C 
HETATM    4  N   LIG     1     -10.259  16.356  67.786  1.00  0.00    -0.327 N 
HETATM    5  H   LIG     1     -10.412  16.025  68.731  1.00  0.00     0.169 HD
HETATM    6  O   LIG     1      -9.515  15.612  65.728  1.00  0.00    -0.272 OA
BRANCH   4   7
HETATM    7  C   LIG     1      -9.840  17.696  67.642  1.00  0.00     0.035 A 
HETATM    8  C   LIG     1     -10.764  18.639  67.197  1.00  0.00    -0.057 A 
HETATM    9  C   LIG     1     -10.407  19.987  67.109  1.00  0.00    -0.080 A 
HETATM   10  H   LIG     1     -11.784  18.347  66.972  1.00  0.00     0.086 H 
HETATM   11  C   LIG     1      -9.099  20.384  67.380  1.00  0.00    -0.076 A 
HETATM   12  H   LIG     1     -11.146  20.732  66.828  1.00  0.00     0.083 H 
HETATM   13  C   LIG     1      -8.135  19.438  67.748  1.00  0.00    -0.052 A 
HETATM   14  H   LIG     1      -8.831  21.435  67.288  1.00  0.00     0.084 H 
HETATM   15  C   LIG     1      -8.527  18.099  67.909  1.00  0.00    -0.051 A 
HETATM   16  H   LIG     1      -7.785  17.364  68.214  1.00  0.00     0.087 H 
BRANCH  13  17
HETATM   17  C   LIG     1      -6.692  19.842  67.970  1.00  0.00    -0.017 C 
HETATM   18  H   LIG     1      -6.671  20.617  68.746  1.00  0.00     0.047 H 
HETATM   19  H   LIG     1      -6.117  19.000  68.376  1.00  0.00     0.047 H 
BRANCH  17  20
HETATM   20  C   LIG     1      -5.985  20.324  66.719  1.00  0.00    -0.054 A 
HETATM   21  C   LIG     1      -4.931  21.245  66.815  1.00  0.00    -0.075 A 
HETATM   22  C   LIG     1      -4.273  21.694  65.668  1.00  0.00    -0.060 A 
HETATM   23  H   LIG     1      -4.611  21.620  67.785  1.00  0.00     0.084 H 
HETATM   24  C   LIG     1      -4.669  21.223  64.411  1.00  0.00     0.074 A 
HETATM   25  H   LIG     1      -3.450  22.399  65.763  1.00  0.00     0.085 H 
HETATM   26  C   LIG     1      -5.705  20.298  64.297  1.00  0.00    -0.060 A 
HETATM   27  C   LIG     1      -6.360  19.849  65.449  1.00  0.00    -0.075 A 
HETATM   28  H   LIG     1      -6.007  19.917  63.323  1.00  0.00     0.085 H 
HETATM   29  H   LIG     1      -7.169  19.126  65.356  1.00  0.00     0.084 H 
BRANCH  24  30
HETATM   30  S   LIG     1      -3.805  21.792  62.976  1.00  0.00     0.239 S 
HETATM   31  O   LIG     1      -4.777  22.320  62.037  1.00  0.00    -0.206 OA
HETATM   32  O   LIG     1      -2.809  20.831  62.598  1.00  0.00    -0.206 OA
BRANCH  30  33
HETATM   33  N   LIG     1      -2.948  23.121  63.542  1.00  0.00    -0.225 NA
HETATM   34  H   LIG     1      -2.690  22.968  64.518  1.00  0.00     0.136 HD
HETATM   35  H   LIG     1      -3.515  23.962  63.407  1.00  0.00     0.136 HD
ENDBRANCH  30  33
ENDBRANCH  24  30
ENDBRANCH  17  20
ENDBRANCH  13  17
ENDBRANCH   4   7
ENDBRANCH   1   3
BRANCH   1  36
HETATM   36  C   LIG     1     -11.973  14.167  68.021  1.00  0.00    -0.011 C 
HETATM   37  H   LIG     1     -12.852  13.762  67.507  1.00  0.00     0.050 H 
HETATM   38  H   LIG     1     -12.175  15.224  68.219  1.00  0.00     0.050 H 
BRANCH  36  39
HETATM   39  S   LIG     1     -11.911  13.333  69.648  1.00  0.00    -0.181 SA
HETATM   40  H   LIG     1     -10.901  12.495  69.338  1.00  0.00     0.101 HD
ENDBRANCH  36  39
ENDBRANCH   1  36
BRANCH   1  41
HETATM   41  C   LIG     1     -10.981  13.176  65.867  1.00  0.00    -0.026 A 
HETATM   42  C   LIG     1     -10.022  12.287  65.372  1.00  0.00    -0.067 A 
HETATM   43  C   LIG     1     -10.303  11.494  64.254  1.00  0.00    -0.038 A 
HETATM   44  H   LIG     1      -9.050  12.206  65.853  1.00  0.00     0.085 H 
HETATM   45  C   LIG     1     -11.552  11.636  63.664  1.00  0.00     0.008 A 
HETATM   46  N   LIG     1     -12.508  12.469  64.118  1.00  0.00    -0.272 NA
HETATM   47  H   LIG     1     -11.833  11.057  62.789  1.00  0.00     0.115 H 
HETATM   48  C   LIG     1     -12.202  13.224  65.195  1.00  0.00     0.009 A 
HETATM   49  H   LIG     1     -13.011  13.878  65.510  1.00  0.00     0.115 H 
BRANCH  43  50
HETATM   50  C   LIG     1      -9.293  10.525  63.695  1.00  0.00    -0.025 C 
HETATM   51  H   LIG     1      -9.635   9.495  63.852  1.00  0.00     0.042 H 
HETATM   52  H   LIG     1      -8.364  10.640  64.267  1.00  0.00     0.042 H 
BRANCH  50  53
HETATM   53  C   LIG     1      -8.997  10.736  62.205  1.00  0.00    -0.001 C 
HETATM   54  H   LIG     1      -9.642  11.530  61.814  1.00  0.00     0.064 H 
HETATM   55  H   LIG     1      -9.208   9.831  61.624  1.00  0.00     0.064 H 
BRANCH  53  56
HETATM   56  N   LIG     1      -7.610  11.078  61.954  1.00  0.00    -0.360 N 
HETATM   57  C   LIG     1      -6.846  10.380  61.041  1.00  0.00     0.221 C 
HETATM   58  O   LIG     1      -7.310   9.503  60.321  1.00  0.00    -0.273 OA
HETATM   59  H   LIG     1      -7.143  11.672  62.627  1.00  0.00     0.162 HD
BRANCH  57  60
HETATM   60  C   LIG     1      -5.369  10.780  61.031  1.00  0.00     0.024 C 
HETATM   61  C   LIG     1      -4.631  10.233  59.798  1.00  0.00    -0.051 C 
HETATM   62  C   LIG     1      -4.958  10.998  58.513  1.00  0.00    -0.040 C 
HETATM   63  H   LIG     1      -4.864   9.171  59.650  1.00  0.00     0.034 H 
HETATM   64  H   LIG     1      -3.549  10.287  59.976  1.00  0.00     0.034 H 
HETATM   65  C   LIG     1      -4.761  12.504  58.662  1.00  0.00     0.035 C 
HETATM   66  H   LIG     1      -5.994  10.796  58.218  1.00  0.00     0.036 H 
HETATM   67  H   LIG     1      -4.315  10.618  57.710  1.00  0.00     0.036 H 
HETATM   68  C   LIG     1      -5.503  13.060  59.876  1.00  0.00    -0.040 C 
HETATM   69  H   LIG     1      -5.127  13.003  57.759  1.00  0.00     0.082 H 
HETATM   70  C   LIG     1      -5.194  12.296  61.162  1.00  0.00    -0.051 C 
HETATM   71  H   LIG     1      -6.583  13.026  59.690  1.00  0.00     0.036 H 
HETATM   72  H   LIG     1      -5.231  14.112  60.028  1.00  0.00     0.036 H 
HETATM   73  H   LIG     1      -5.824  12.706  61.960  1.00  0.00     0.034 H 
HETATM   74  H   LIG     1      -4.160  12.495  61.460  1.00  0.00     0.034 H 
HETATM   75  H   LIG     1      -4.927  10.301  61.917  1.00  0.00     0.054 H 
BRANCH  65  76
HETATM   76  O   LIG     1      -3.367  12.796  58.742  1.00  0.00    -0.396 OA
HETATM   77  H   LIG     1      -2.861  11.970  58.690  1.00  0.00     0.210 HD
ENDBRANCH  65  76
ENDBRANCH  57  60
ENDBRANCH  53  56
ENDBRANCH  50  53
ENDBRANCH  43  50
ENDBRANCH   1  41
TORSDOF 14
ENDMDL
MODEL 8
REMARK VINA RESULT:      -5.0      4.720      7.643
REMARK  14 active torsions:
REMARK  status: ('A' for Active; 'I' for Inactive)
REMARK    1  A    between atoms: N_1  and  S_2 
REMARK    2  A    between atoms: S_2  and  C_5 
REMARK    3  A    between atoms: C_8  and  C_9 
REMARK    4  A    between atoms: C_9  and  C_10 
REMARK    5  A    between atoms: C_14  and  N_15 
REMARK       I    between atoms: N_15  and  C_16 
REMARK    6  A    between atoms: C_16  and  C_18 
REMARK    7  A    between atoms: C_18  and  C_19 
REMARK    8  A    between atoms: C_18  and  C_21 
REMARK    9  A    between atoms: C_19  and  S_20 
REMARK   10  A    between atoms: C_23  and  C_24 
REMARK   11  A    between atoms: C_24  and  C_25 
REMARK   12  A    between atoms: C_25  and  N_26 
REMARK       I    between atoms: N_26  and  C_27 
REMARK   13  A    between atoms: C_27  and  C_29 
REMARK   14  A    between atoms: C_32  and  O_33 
ROOT
HETATM    1  C   LIG     1     -10.533  13.841  67.005  1.00  0.00     0.058 C 
HETATM    2  H   LIG     1      -9.872  13.344  67.734  1.00  0.00     0.063 H 
ENDROOT
BRANCH   1   3
HETATM    3  C   LIG     1      -9.878  15.214  66.801  1.00  0.00     0.231 C 
HETATM    4  N   LIG     1     -10.275  16.190  67.707  1.00  0.00    -0.327 N 
HETATM    5  H   LIG     1     -10.617  15.879  68.608  1.00  0.00     0.169 HD
HETATM    6  O   LIG     1      -9.090  15.420  65.879  1.00  0.00    -0.272 OA
BRANCH   4   7
HETATM    7  C   LIG     1      -9.873  17.540  67.612  1.00  0.00     0.035 A 
HETATM    8  C   LIG     1     -10.633  18.408  66.830  1.00  0.00    -0.057 A 
HETATM    9  C   LIG     1     -10.307  19.765  66.767  1.00  0.00    -0.080 A 
HETATM   10  H   LIG     1     -11.517  18.052  66.312  1.00  0.00     0.086 H 
HETATM   11  C   LIG     1      -9.169  20.243  67.413  1.00  0.00    -0.076 A 
HETATM   12  H   LIG     1     -10.939  20.454  66.214  1.00  0.00     0.083 H 
HETATM   13  C   LIG     1      -8.346  19.369  68.135  1.00  0.00    -0.052 A 
HETATM   14  H   LIG     1      -8.917  21.300  67.338  1.00  0.00     0.084 H 
HETATM   15  C   LIG     1      -8.729  18.024  68.255  1.00  0.00    -0.051 A 
HETATM   16  H   LIG     1      -8.103  17.346  68.832  1.00  0.00     0.087 H 
BRANCH  13  17
HETATM   17  C   LIG     1      -7.065  19.859  68.777  1.00  0.00    -0.017 C 
HETATM   18  H   LIG     1      -7.293  20.773  69.339  1.00  0.00     0.047 H 
HETATM   19  H   LIG     1      -6.710  19.135  69.522  1.00  0.00     0.047 H 
BRANCH  17  20
HETATM   20  C   LIG     1      -5.936  20.105  67.796  1.00  0.00    -0.054 A 
HETATM   21  C   LIG     1      -5.099  19.050  67.405  1.00  0.00    -0.075 A 
HETATM   22  C   LIG     1      -4.057  19.267  66.501  1.00  0.00    -0.060 A 
HETATM   23  H   LIG     1      -5.251  18.047  67.799  1.00  0.00     0.084 H 
HETATM   24  C   LIG     1      -3.844  20.549  65.982  1.00  0.00     0.074 A 
HETATM   25  H   LIG     1      -3.425  18.434  66.201  1.00  0.00     0.085 H 
HETATM   26  C   LIG     1      -4.675  21.607  66.348  1.00  0.00    -0.060 A 
HETATM   27  C   LIG     1      -5.718  21.383  67.252  1.00  0.00    -0.075 A 
HETATM   28  H   LIG     1      -4.523  22.603  65.935  1.00  0.00     0.085 H 
HETATM   29  H   LIG     1      -6.365  22.212  67.536  1.00  0.00     0.084 H 
BRANCH  24  30
HETATM   30  S   LIG     1      -2.530  20.793  64.823  1.00  0.00     0.239 S 
HETATM   31  O   LIG     1      -2.228  22.210  64.766  1.00  0.00    -0.206 OA
HETATM   32  O   LIG     1      -2.769  20.006  63.647  1.00  0.00    -0.206 OA
BRANCH  30  33
HETATM   33  N   LIG     1      -1.211  20.074  65.576  1.00  0.00    -0.225 NA
HETATM   34  H   LIG     1      -1.340  19.061  65.592  1.00  0.00     0.136 HD
HETATM   35  H   LIG     1      -1.106  20.477  66.511  1.00  0.00     0.136 HD
ENDBRANCH  30  33
ENDBRANCH  24  30
ENDBRANCH  17  20
ENDBRANCH  13  17
ENDBRANCH   4   7
ENDBRANCH   1   3
BRANCH   1  36
HETATM   36  C   LIG     1     -11.903  13.945  67.719  1.00  0.00    -0.011 C 
HETATM   37  H   LIG     1     -12.628  13.309  67.199  1.00  0.00     0.050 H 
HETATM   38  H   LIG     1     -12.273  14.973  67.656  1.00  0.00     0.050 H 
BRANCH  36  39
HETATM   39  S   LIG     1     -11.986  13.466  69.483  1.00  0.00    -0.181 SA
HETATM   40  H   LIG     1     -12.371  12.193  69.265  1.00  0.00     0.101 HD
ENDBRANCH  36  39
ENDBRANCH   1  36
BRANCH   1  41
HETATM   41  C   LIG     1     -10.554  12.969  65.761  1.00  0.00    -0.026 A 
HETATM   42  C   LIG     1      -9.835  11.772  65.668  1.00  0.00    -0.067 A 
HETATM   43  C   LIG     1      -9.908  10.991  64.510  1.00  0.00    -0.038 A 
HETATM   44  H   LIG     1      -9.213  11.442  66.497  1.00  0.00     0.085 H 
HETATM   45  C   LIG     1     -10.706  11.456  63.473  1.00  0.00     0.008 A 
HETATM   46  N   LIG     1     -11.425  12.594  63.527  1.00  0.00    -0.272 NA
HETATM   47  H   LIG     1     -10.802  10.902  62.542  1.00  0.00     0.115 H 
HETATM   48  C   LIG     1     -11.327  13.326  64.657  1.00  0.00     0.009 A 
HETATM   49  H   LIG     1     -11.926  14.234  64.639  1.00  0.00     0.115 H 
BRANCH  43  50
HETATM   50  C   LIG     1      -9.148   9.697  64.377  1.00  0.00    -0.025 C 
HETATM   51  H   LIG     1      -8.173   9.881  63.910  1.00  0.00     0.042 H 
HETATM   52  H   LIG     1      -9.709   9.047  63.693  1.00  0.00     0.042 H 
BRANCH  50  53
HETATM   53  C   LIG     1      -8.939   8.966  65.710  1.00  0.00    -0.001 C 
HETATM   54  H   LIG     1      -9.487   9.487  66.501  1.00  0.00     0.064 H 
HETATM   55  H   LIG     1      -7.882   8.959  65.998  1.00  0.00     0.064 H 
BRANCH  53  56
HETATM   56  N   LIG     1      -9.367   7.581  65.660  1.00  0.00    -0.360 N 
HETATM   57  C   LIG     1      -8.458   6.544  65.623  1.00  0.00     0.221 C 
HETATM   58  O   LIG     1      -7.249   6.717  65.727  1.00  0.00    -0.273 OA
HETATM   59  H   LIG     1     -10.329   7.396  65.410  1.00  0.00     0.162 HD
BRANCH  57  60
HETATM   60  C   LIG     1      -9.093   5.168  65.411  1.00  0.00     0.024 C 
HETATM   61  C   LIG     1      -8.105   4.025  65.699  1.00  0.00    -0.051 C 
HETATM   62  C   LIG     1      -7.863   3.802  67.193  1.00  0.00    -0.040 C 
HETATM   63  H   LIG     1      -7.143   4.215  65.206  1.00  0.00     0.034 H 
HETATM   64  H   LIG     1      -8.495   3.097  65.261  1.00  0.00     0.034 H 
HETATM   65  C   LIG     1      -9.160   3.632  67.978  1.00  0.00     0.035 C 
HETATM   66  H   LIG     1      -7.299   4.647  67.605  1.00  0.00     0.036 H 
HETATM   67  H   LIG     1      -7.237   2.910  67.314  1.00  0.00     0.036 H 
HETATM   68  C   LIG     1     -10.143   4.771  67.711  1.00  0.00    -0.040 C 
HETATM   69  H   LIG     1      -8.929   3.603  69.048  1.00  0.00     0.082 H 
HETATM   70  C   LIG     1     -10.383   5.011  66.222  1.00  0.00    -0.051 C 
HETATM   71  H   LIG     1      -9.763   5.693  68.166  1.00  0.00     0.036 H 
HETATM   72  H   LIG     1     -11.108   4.547  68.183  1.00  0.00     0.036 H 
HETATM   73  H   LIG     1     -11.031   5.888  66.120  1.00  0.00     0.034 H 
HETATM   74  H   LIG     1     -10.946   4.169  65.808  1.00  0.00     0.034 H 
HETATM   75  H   LIG     1      -9.347   5.120  64.342  1.00  0.00     0.054 H 
BRANCH  65  76
HETATM   76  O   LIG     1      -9.746   2.371  67.662  1.00  0.00    -0.396 OA
HETATM   77  H   LIG     1      -9.535   2.138  66.744  1.00  0.00     0.210 HD
ENDBRANCH  65  76
ENDBRANCH  57  60
ENDBRANCH  53  56
ENDBRANCH  50  53
ENDBRANCH  43  50
ENDBRANCH   1  41
TORSDOF 14
ENDMDL
MODEL 9
REMARK VINA RESULT:      -4.8      5.292      7.645
REMARK  14 active torsions:
REMARK  status: ('A' for Active; 'I' for Inactive)
REMARK    1  A    between atoms: N_1  and  S_2 
REMARK    2  A    between atoms: S_2  and  C_5 
REMARK    3  A    between atoms: C_8  and  C_9 
REMARK    4  A    between atoms: C_9  and  C_10 
REMARK    5  A    between atoms: C_14  and  N_15 
REMARK       I    between atoms: N_15  and  C_16 
REMARK    6  A    between atoms: C_16  and  C_18 
REMARK    7  A    between atoms: C_18  and  C_19 
REMARK    8  A    between atoms: C_18  and  C_21 
REMARK    9  A    between atoms: C_19  and  S_20 
REMARK   10  A    between atoms: C_23  and  C_24 
REMARK   11  A    between atoms: C_24  and  C_25 
REMARK   12  A    between atoms: C_25  and  N_26 
REMARK       I    between atoms: N_26  and  C_27 
REMARK   13  A    between atoms: C_27  and  C_29 
REMARK   14  A    between atoms: C_32  and  O_33 
ROOT
HETATM    1  C   LIG     1     -10.742  14.018  67.092  1.00  0.00     0.058 C 
HETATM    2  H   LIG     1      -9.987  13.552  67.746  1.00  0.00     0.063 H 
ENDROOT
BRANCH   1   3
HETATM    3  C   LIG     1     -10.138  15.390  66.763  1.00  0.00     0.231 C 
HETATM    4  N   LIG     1     -10.281  16.345  67.763  1.00  0.00    -0.327 N 
HETATM    5  H   LIG     1     -10.390  16.013  68.713  1.00  0.00     0.169 HD
HETATM    6  O   LIG     1      -9.603  15.613  65.678  1.00  0.00    -0.272 OA
BRANCH   4   7
HETATM    7  C   LIG     1      -9.895  17.693  67.601  1.00  0.00     0.035 A 
HETATM    8  C   LIG     1     -10.850  18.613  67.176  1.00  0.00    -0.057 A 
HETATM    9  C   LIG     1     -10.524  19.968  67.071  1.00  0.00    -0.080 A 
HETATM   10  H   LIG     1     -11.869  18.299  66.979  1.00  0.00     0.086 H 
HETATM   11  C   LIG     1      -9.219  20.395  67.307  1.00  0.00    -0.076 A 
HETATM   12  H   LIG     1     -11.287  20.696  66.806  1.00  0.00     0.083 H 
HETATM   13  C   LIG     1      -8.225  19.472  67.654  1.00  0.00    -0.052 A 
HETATM   14  H   LIG     1      -8.976  21.451  67.202  1.00  0.00     0.084 H 
HETATM   15  C   LIG     1      -8.585  18.126  67.832  1.00  0.00    -0.051 A 
HETATM   16  H   LIG     1      -7.819  17.408  68.122  1.00  0.00     0.087 H 
BRANCH  13  17
HETATM   17  C   LIG     1      -6.787  19.908  67.836  1.00  0.00    -0.017 C 
HETATM   18  H   LIG     1      -6.771  20.743  68.548  1.00  0.00     0.047 H 
HETATM   19  H   LIG     1      -6.201  19.108  68.307  1.00  0.00     0.047 H 
BRANCH  17  20
HETATM   20  C   LIG     1      -6.089  20.295  66.547  1.00  0.00    -0.054 A 
HETATM   21  C   LIG     1      -5.034  21.219  66.567  1.00  0.00    -0.075 A 
HETATM   22  C   LIG     1      -4.384  21.581  65.385  1.00  0.00    -0.060 A 
HETATM   23  H   LIG     1      -4.706  21.665  67.503  1.00  0.00     0.084 H 
HETATM   24  C   LIG     1      -4.791  21.018  64.170  1.00  0.00     0.074 A 
HETATM   25  H   LIG     1      -3.561  22.290  65.421  1.00  0.00     0.085 H 
HETATM   26  C   LIG     1      -5.828  20.088  64.132  1.00  0.00    -0.060 A 
HETATM   27  C   LIG     1      -6.474  19.727  65.320  1.00  0.00    -0.075 A 
HETATM   28  H   LIG     1      -6.138  19.636  63.191  1.00  0.00     0.085 H 
HETATM   29  H   LIG     1      -7.284  19.000  65.287  1.00  0.00     0.084 H 
BRANCH  24  30
HETATM   30  S   LIG     1      -3.938  21.478  62.689  1.00  0.00     0.239 S 
HETATM   31  O   LIG     1      -4.466  22.750  62.234  1.00  0.00    -0.206 OA
HETATM   32  O   LIG     1      -3.818  20.338  61.826  1.00  0.00    -0.206 OA
BRANCH  30  33
HETATM   33  N   LIG     1      -2.377  21.796  63.224  1.00  0.00    -0.225 NA
HETATM   34  H   LIG     1      -2.160  21.188  64.016  1.00  0.00     0.136 HD
HETATM   35  H   LIG     1      -2.303  22.790  63.453  1.00  0.00     0.136 HD
ENDBRANCH  30  33
ENDBRANCH  24  30
ENDBRANCH  17  20
ENDBRANCH  13  17
ENDBRANCH   4   7
ENDBRANCH   1   3
BRANCH   1  36
HETATM   36  C   LIG     1     -12.011  14.131  67.972  1.00  0.00    -0.011 C 
HETATM   37  H   LIG     1     -12.854  13.670  67.446  1.00  0.00     0.050 H 
HETATM   38  H   LIG     1     -12.262  15.186  68.120  1.00  0.00     0.050 H 
BRANCH  36  39
HETATM   39  S   LIG     1     -11.971  13.366  69.633  1.00  0.00    -0.181 SA
HETATM   40  H   LIG     1     -10.807  12.710  69.457  1.00  0.00     0.101 HD
ENDBRANCH  36  39
ENDBRANCH   1  36
BRANCH   1  41
HETATM   41  C   LIG     1     -10.909  13.105  65.889  1.00  0.00    -0.026 A 
HETATM   42  C   LIG     1     -10.082  11.999  65.662  1.00  0.00    -0.067 A 
HETATM   43  C   LIG     1     -10.294  11.174  64.554  1.00  0.00    -0.038 A 
HETATM   44  H   LIG     1      -9.268  11.775  66.348  1.00  0.00     0.085 H 
HETATM   45  C   LIG     1     -11.338  11.503  63.699  1.00  0.00     0.008 A 
HETATM   46  N   LIG     1     -12.165  12.549  63.888  1.00  0.00    -0.272 NA
HETATM   47  H   LIG     1     -11.553  10.908  62.814  1.00  0.00     0.115 H 
HETATM   48  C   LIG     1     -11.929  13.329  64.965  1.00  0.00     0.009 A 
HETATM   49  H   LIG     1     -12.626  14.158  65.061  1.00  0.00     0.115 H 
BRANCH  43  50
HETATM   50  C   LIG     1      -9.424   9.974  64.280  1.00  0.00    -0.025 C 
HETATM   51  H   LIG     1      -9.994   9.052  64.446  1.00  0.00     0.042 H 
HETATM   52  H   LIG     1      -8.608   9.977  65.013  1.00  0.00     0.042 H 
BRANCH  50  53
HETATM   53  C   LIG     1      -8.831   9.954  62.866  1.00  0.00    -0.001 C 
HETATM   54  H   LIG     1      -7.814  10.359  62.890  1.00  0.00     0.064 H 
HETATM   55  H   LIG     1      -9.413  10.581  62.181  1.00  0.00     0.064 H 
BRANCH  53  56
HETATM   56  N   LIG     1      -8.804   8.622  62.290  1.00  0.00    -0.360 N 
HETATM   57  C   LIG     1      -9.313   8.366  61.034  1.00  0.00     0.221 C 
HETATM   58  O   LIG     1      -9.726   9.250  60.292  1.00  0.00    -0.273 OA
HETATM   59  H   LIG     1      -8.630   7.845  62.914  1.00  0.00     0.162 HD
BRANCH  57  60
HETATM   60  C   LIG     1      -9.343   6.881  60.665  1.00  0.00     0.024 C 
HETATM   61  C   LIG     1      -9.647   6.662  59.174  1.00  0.00    -0.051 C 
HETATM   62  C   LIG     1      -8.455   6.974  58.266  1.00  0.00    -0.040 C 
HETATM   63  H   LIG     1     -10.503   7.273  58.862  1.00  0.00     0.034 H 
HETATM   64  H   LIG     1      -9.944   5.616  59.021  1.00  0.00     0.034 H 
HETATM   65  C   LIG     1      -7.186   6.243  58.693  1.00  0.00     0.035 C 
HETATM   66  H   LIG     1      -8.267   8.053  58.264  1.00  0.00     0.036 H 
HETATM   67  H   LIG     1      -8.718   6.691  57.240  1.00  0.00     0.036 H 
HETATM   68  C   LIG     1      -6.866   6.467  60.170  1.00  0.00    -0.040 C 
HETATM   69  H   LIG     1      -6.346   6.600  58.087  1.00  0.00     0.082 H 
HETATM   70  C   LIG     1      -8.052   6.170  61.085  1.00  0.00    -0.051 C 
HETATM   71  H   LIG     1      -6.549   7.505  60.320  1.00  0.00     0.036 H 
HETATM   72  H   LIG     1      -6.031   5.823  60.471  1.00  0.00     0.036 H 
HETATM   73  H   LIG     1      -7.764   6.432  62.110  1.00  0.00     0.034 H 
HETATM   74  H   LIG     1      -8.243   5.092  61.091  1.00  0.00     0.034 H 
HETATM   75  H   LIG     1     -10.178   6.451  61.237  1.00  0.00     0.054 H 
BRANCH  65  76
HETATM   76  O   LIG     1      -7.319   4.852  58.408  1.00  0.00    -0.396 OA
HETATM   77  H   LIG     1      -8.189   4.685  58.013  1.00  0.00     0.210 HD
ENDBRANCH  65  76
ENDBRANCH  57  60
ENDBRANCH  53  56
ENDBRANCH  50  53
ENDBRANCH  43  50
ENDBRANCH   1  41
TORSDOF 14
ENDMDL
MODEL 10
REMARK VINA RESULT:      -4.3      4.667      7.930
REMARK  14 active torsions:
REMARK  status: ('A' for Active; 'I' for Inactive)
REMARK    1  A    between atoms: N_1  and  S_2 
REMARK    2  A    between atoms: S_2  and  C_5 
REMARK    3  A    between atoms: C_8  and  C_9 
REMARK    4  A    between atoms: C_9  and  C_10 
REMARK    5  A    between atoms: C_14  and  N_15 
REMARK       I    between atoms: N_15  and  C_16 
REMARK    6  A    between atoms: C_16  and  C_18 
REMARK    7  A    between atoms: C_18  and  C_19 
REMARK    8  A    between atoms: C_18  and  C_21 
REMARK    9  A    between atoms: C_19  and  S_20 
REMARK   10  A    between atoms: C_23  and  C_24 
REMARK   11  A    between atoms: C_24  and  C_25 
REMARK   12  A    between atoms: C_25  and  N_26 
REMARK       I    between atoms: N_26  and  C_27 
REMARK   13  A    between atoms: C_27  and  C_29 
REMARK   14  A    between atoms: C_32  and  O_33 
ROOT
HETATM    1  C   LIG     1      -7.819  11.309  67.205  1.00  0.00     0.058 C 
HETATM    2  H   LIG     1      -7.249  12.244  67.328  1.00  0.00     0.063 H 
ENDROOT
BRANCH   1   3
HETATM    3  C   LIG     1      -7.908  10.750  68.632  1.00  0.00     0.231 C 
HETATM    4  N   LIG     1      -8.926   9.824  68.833  1.00  0.00    -0.327 N 
HETATM    5  H   LIG     1      -9.253   9.309  68.025  1.00  0.00     0.169 HD
HETATM    6  O   LIG     1      -7.149  11.133  69.520  1.00  0.00    -0.272 OA
BRANCH   4   7
HETATM    7  C   LIG     1      -9.239   9.287  70.100  1.00  0.00     0.035 A 
HETATM    8  C   LIG     1     -10.530   9.457  70.594  1.00  0.00    -0.057 A 
HETATM    9  C   LIG     1     -10.899   8.880  71.813  1.00  0.00    -0.080 A 
HETATM   10  H   LIG     1     -11.279   9.985  70.013  1.00  0.00     0.086 H 
HETATM   11  C   LIG     1      -9.953   8.207  72.583  1.00  0.00    -0.076 A 
HETATM   12  H   LIG     1     -11.924   8.954  72.165  1.00  0.00     0.083 H 
HETATM   13  C   LIG     1      -8.629   8.099  72.142  1.00  0.00    -0.052 A 
HETATM   14  H   LIG     1     -10.250   7.781  73.540  1.00  0.00     0.084 H 
HETATM   15  C   LIG     1      -8.292   8.615  70.879  1.00  0.00    -0.051 A 
HETATM   16  H   LIG     1      -7.268   8.515  70.524  1.00  0.00     0.087 H 
BRANCH  13  17
HETATM   17  C   LIG     1      -7.572   7.440  73.003  1.00  0.00    -0.017 C 
HETATM   18  H   LIG     1      -8.033   6.586  73.515  1.00  0.00     0.047 H 
HETATM   19  H   LIG     1      -6.778   7.015  72.376  1.00  0.00     0.047 H 
BRANCH  17  20
HETATM   20  C   LIG     1      -6.921   8.372  74.006  1.00  0.00    -0.054 A 
HETATM   21  C   LIG     1      -7.511   8.581  75.261  1.00  0.00    -0.075 A 
HETATM   22  C   LIG     1      -6.919   9.436  76.192  1.00  0.00    -0.060 A 
HETATM   23  H   LIG     1      -8.439   8.077  75.527  1.00  0.00     0.084 H 
HETATM   24  C   LIG     1      -5.726  10.093  75.870  1.00  0.00     0.074 A 
HETATM   25  H   LIG     1      -7.385   9.577  77.164  1.00  0.00     0.085 H 
HETATM   26  C   LIG     1      -5.117   9.887  74.633  1.00  0.00    -0.060 A 
HETATM   27  C   LIG     1      -5.714   9.027  73.705  1.00  0.00    -0.075 A 
HETATM   28  H   LIG     1      -4.181  10.384  74.383  1.00  0.00     0.085 H 
HETATM   29  H   LIG     1      -5.236   8.868  72.739  1.00  0.00     0.084 H 
BRANCH  24  30
HETATM   30  S   LIG     1      -4.984  11.156  77.074  1.00  0.00     0.239 S 
HETATM   31  O   LIG     1      -5.905  12.240  77.355  1.00  0.00    -0.206 OA
HETATM   32  O   LIG     1      -3.607  11.379  76.740  1.00  0.00    -0.206 OA
BRANCH  30  33
HETATM   33  N   LIG     1      -4.957  10.208  78.461  1.00  0.00    -0.225 NA
HETATM   34  H   LIG     1      -5.294  10.756  79.254  1.00  0.00     0.136 HD
HETATM   35  H   LIG     1      -4.008   9.851  78.598  1.00  0.00     0.136 HD
ENDBRANCH  30  33
ENDBRANCH  24  30
ENDBRANCH  17  20
ENDBRANCH  13  17
ENDBRANCH   4   7
ENDBRANCH   1   3
BRANCH   1  36
HETATM   36  C   LIG     1      -6.940  10.429  66.284  1.00  0.00    -0.011 C 
HETATM   37  H   LIG     1      -6.027  10.977  66.028  1.00  0.00     0.050 H 
HETATM   38  H   LIG     1      -7.471  10.233  65.347  1.00  0.00     0.050 H 
BRANCH  36  39
HETATM   39  S   LIG     1      -6.393   8.804  66.922  1.00  0.00    -0.181 SA
HETATM   40  H   LIG     1      -5.570   9.296  67.871  1.00  0.00     0.101 HD
ENDBRANCH  36  39
ENDBRANCH   1  36
BRANCH   1  41
HETATM   41  C   LIG     1      -9.160  11.685  66.598  1.00  0.00    -0.026 A 
HETATM   42  C   LIG     1      -9.922  12.762  67.064  1.00  0.00    -0.067 A 
HETATM   43  C   LIG     1     -11.138  13.084  66.453  1.00  0.00    -0.038 A 
HETATM   44  H   LIG     1      -9.574  13.355  67.907  1.00  0.00     0.085 H 
HETATM   45  C   LIG     1     -11.550  12.295  65.388  1.00  0.00     0.008 A 
HETATM   46  N   LIG     1     -10.840  11.260  64.899  1.00  0.00    -0.272 NA
HETATM   47  H   LIG     1     -12.488  12.485  64.872  1.00  0.00     0.115 H 
HETATM   48  C   LIG     1      -9.674  10.972  65.515  1.00  0.00     0.009 A 
HETATM   49  H   LIG     1      -9.150  10.125  65.078  1.00  0.00     0.115 H 
BRANCH  43  50
HETATM   50  C   LIG     1     -11.984  14.237  66.929  1.00  0.00    -0.025 C 
HETATM   51  H   LIG     1     -12.880  13.861  67.438  1.00  0.00     0.042 H 
HETATM   52  H   LIG     1     -12.330  14.787  66.046  1.00  0.00     0.042 H 
BRANCH  50  53
HETATM   53  C   LIG     1     -11.241  15.200  67.864  1.00  0.00    -0.001 C 
HETATM   54  H   LIG     1     -10.800  14.637  68.692  1.00  0.00     0.064 H 
HETATM   55  H   LIG     1     -11.924  15.937  68.302  1.00  0.00     0.064 H 
BRANCH  53  56
HETATM   56  N   LIG     1     -10.201  15.948  67.184  1.00  0.00    -0.360 N 
HETATM   57  C   LIG     1     -10.143  17.325  67.244  1.00  0.00     0.221 C 
HETATM   58  O   LIG     1     -10.896  17.992  67.946  1.00  0.00    -0.273 OA
HETATM   59  H   LIG     1      -9.667  15.468  66.471  1.00  0.00     0.162 HD
BRANCH  57  60
HETATM   60  C   LIG     1      -9.078  17.944  66.336  1.00  0.00     0.024 C 
HETATM   61  C   LIG     1      -8.758  19.396  66.726  1.00  0.00    -0.051 C 
HETATM   62  C   LIG     1      -7.899  19.504  67.988  1.00  0.00    -0.040 C 
HETATM   63  H   LIG     1      -9.683  19.967  66.875  1.00  0.00     0.034 H 
HETATM   64  H   LIG     1      -8.228  19.881  65.896  1.00  0.00     0.034 H 
HETATM   65  C   LIG     1      -6.635  18.653  67.911  1.00  0.00     0.035 C 
HETATM   66  H   LIG     1      -8.487  19.199  68.861  1.00  0.00     0.036 H 
HETATM   67  H   LIG     1      -7.628  20.556  68.135  1.00  0.00     0.036 H 
HETATM   68  C   LIG     1      -6.943  17.204  67.539  1.00  0.00    -0.040 C 
HETATM   69  H   LIG     1      -6.130  18.673  68.883  1.00  0.00     0.082 H 
HETATM   70  C   LIG     1      -7.810  17.084  66.287  1.00  0.00    -0.051 C 
HETATM   71  H   LIG     1      -7.453  16.713  68.376  1.00  0.00     0.036 H 
HETATM   72  H   LIG     1      -6.008  16.658  67.361  1.00  0.00     0.036 H 
HETATM   73  H   LIG     1      -8.049  16.025  66.139  1.00  0.00     0.034 H 
HETATM   74  H   LIG     1      -7.226  17.387  65.413  1.00  0.00     0.034 H 
HETATM   75  H   LIG     1      -9.522  17.965  65.330  1.00  0.00     0.054 H 
BRANCH  65  76
HETATM   76  O   LIG     1      -5.726  19.233  66.978  1.00  0.00    -0.396 OA
HETATM   77  H   LIG     1      -5.187  18.535  66.575  1.00  0.00     0.210 HD
ENDBRANCH  65  76
ENDBRANCH  57  60
ENDBRANCH  53  56
ENDBRANCH  50  53
ENDBRANCH  43  50
ENDBRANCH   1  41
TORSDOF 14
ENDMDL
