ligands/mol4.pdb
  rDOCK(R)          3D
libRbt.so/2013.1/901 2013/11/27
 46 49  0  0  0  0  0  0  0  0999 V2000
  -17.7825  -21.0552    0.0514 N   0  0  0  0  0  0
  -17.1657  -21.3858   -1.4753 S   0  0  0  0  0  0
  -17.2093  -22.8077   -1.6363 O   0  0  0  0  0  0
  -17.8643  -20.4712   -2.3665 O   0  0  0  0  0  0
  -15.4767  -20.8785   -1.3268 C   0  0  0  0  0  0
  -14.9598  -20.5250   -0.0799 C   0  0  0  0  0  0
  -13.6312  -20.1110    0.0215 C   0  0  0  0  0  0
  -12.8108  -20.0316   -1.1163 C   0  0  0  0  0  0
  -11.3671  -19.5840   -0.9939 C   0  0  0  0  0  0
  -10.3883  -20.7042   -0.7021 C   0  0  0  0  0  0
   -9.0071  -20.4973   -0.8038 C   0  0  0  0  0  0
   -8.1151  -21.5442   -0.5642 C   0  0  0  0  0  0
   -8.5851  -22.8142   -0.2197 C   0  0  0  0  0  0
   -9.9541  -23.0529   -0.1464 C   0  0  0  0  0  0
  -10.5250  -24.3219    0.0903 N   0  0  0  0  0  0
  -11.8577  -24.6518    0.3241 C   0  0  0  0  0  0
  -12.7982  -23.8733    0.3928 O   0  0  0  0  0  0
  -11.9850  -26.0327    0.4403 N   0  0  0  0  0  0
  -13.1259  -26.7845    0.6439 C   0  0  0  0  0  0
  -13.1214  -28.1354    0.6670 C   0  0  0  0  0  0
  -11.8744  -28.9928    0.5257 C   0  0  0  0  0  0
  -12.1192  -30.5051    0.5578 C   0  0  0  0  0  0
  -10.8790  -31.2449    0.3861 N   0  0  0  0  0  0
  -10.7432  -32.1788   -0.6105 C   0  0  0  0  0  0
  -11.6833  -32.4937   -1.3329 O   0  0  0  0  0  0
   -9.3681  -32.8548   -0.6747 C   0  0  0  0  0  0
   -9.4020  -34.0448   -1.6476 C   0  0  0  0  0  0
   -9.4148  -33.6125   -3.1183 C   0  0  0  0  0  0
   -8.3014  -32.6226   -3.4583 C   0  0  0  0  0  0
   -7.0432  -33.2985   -3.4839 O   0  0  0  0  0  0
   -8.2507  -31.4466   -2.4808 C   0  0  0  0  0  0
   -8.2197  -31.8958   -1.0196 C   0  0  0  0  0  0
  -14.4274  -28.8865    0.8720 C   0  0  0  0  0  0
  -15.6195  -28.0609    0.4295 C   0  0  0  0  0  0
  -16.5359  -28.5814   -0.1996 O   0  0  0  0  0  0
  -15.6206  -26.7552    0.8470 N   0  0  0  0  0  0
  -14.4633  -26.1793    0.9531 C   0  0  0  0  0  0
  -10.8475  -21.9880   -0.3694 C   0  0  0  0  0  0
  -13.3447  -20.3979   -2.3621 C   0  0  0  0  0  0
  -14.6762  -20.8173   -2.4708 C   0  0  0  0  0  0
  -17.2729  -21.6009    0.7460 H   0  0  0  0  0  0
  -18.7898  -21.2168    0.0587 H   0  0  0  0  0  0
   -9.8438  -25.0455    0.2596 H   0  0  0  0  0  0
  -11.1401  -26.5363    0.2304 H   0  0  0  0  0  0
  -10.0423  -30.9211    0.8557 H   0  0  0  0  0  0
   -7.0825  -33.9820   -4.1728 H   0  0  0  0  0  0
  1  2  1  0  0  0
  1 41  1  0  0  0
  1 42  1  0  0  0
  2  3  2  0  0  0
  2  4  2  0  0  0
  2  5  1  0  0  0
  5  6  2  0  0  0
  5 40  1  0  0  0
  6  7  1  0  0  0
  7  8  2  0  0  0
  8  9  1  0  0  0
  8 39  1  0  0  0
  9 10  1  0  0  0
 10 11  2  0  0  0
 10 38  1  0  0  0
 11 12  1  0  0  0
 12 13  2  0  0  0
 13 14  1  0  0  0
 14 15  1  0  0  0
 14 38  2  0  0  0
 15 16  1  0  0  0
 15 43  1  0  0  0
 16 17  2  0  0  0
 16 18  1  0  0  0
 18 19  1  0  0  0
 18 44  1  0  0  0
 19 20  2  0  0  0
 19 37  1  0  0  0
 20 21  1  0  0  0
 20 33  1  0  0  0
 21 22  1  0  0  0
 22 23  1  0  0  0
 23 24  1  0  0  0
 23 45  1  0  0  0
 24 25  2  0  0  0
 24 26  1  0  0  0
 26 27  1  0  0  0
 26 32  1  0  0  0
 27 28  1  0  0  0
 28 29  1  0  0  0
 29 30  1  0  0  0
 29 31  1  0  0  0
 30 46  1  0  0  0
 31 32  1  0  0  0
 33 34  1  0  0  0
 34 35  2  0  0  0
 34 36  1  0  0  0
 36 37  2  0  0  0
 39 40  2  0  0  0
M  END
>  <AUTHOR>
    GENERATED BY OPEN BABEL 2.3.2

>  <CHROM.1>
53.77963848,8.49256145,87.83641913,168.16032808,172.41562765,176.31344334
-178.97557294,178.70350252,-124.58696095,169.94202308,61.05521757,-12.46125183
-25.86198640,-0.73463431,1.97866204,0.10283540,0.00039905

>  <COMPND>
    UNNAMED

>  <MASTER>
        0    0    0    0    0    0    0    0   73    0   73    0

>  <Name>
ligands/mol4.pdb

>  <RI>
3.1026e+07

>  <Rbt.Current_Directory>
/home/rodrigo/Desktop/Rodrigo/Proyectos/test_OCONDOR/OCONDOR

>  <Rbt.Executable>
rbdock ($Id: //depot/dev/client3/rdock/2013.1/src/exe/rbdock.cxx#4 $)

>  <Rbt.Library>
libRbt.so (2013.1, Build901 2013/11/27)

>  <Rbt.Parameter_File>
dock.prm

>  <Rbt.Receptor>
rdock.prm

>  <SCORE>
-15.8551

>  <SCORE.INTER>
-17.0518

>  <SCORE.INTER.CONST>
1

>  <SCORE.INTER.POLAR>
-1.78957

>  <SCORE.INTER.REPUL>
0

>  <SCORE.INTER.ROT>
10

>  <SCORE.INTER.VDW>
-26.3673

>  <SCORE.INTER.norm>
-0.426295

>  <SCORE.INTRA>
1.1967

>  <SCORE.INTRA.DIHEDRAL>
-0.377703

>  <SCORE.INTRA.DIHEDRAL.0>
8.51926

>  <SCORE.INTRA.POLAR>
0

>  <SCORE.INTRA.POLAR.0>
0

>  <SCORE.INTRA.REPUL>
0

>  <SCORE.INTRA.REPUL.0>
0

>  <SCORE.INTRA.VDW>
1.38555

>  <SCORE.INTRA.VDW.0>
-1.46228

>  <SCORE.INTRA.norm>
0.0299175

>  <SCORE.RESTR>
0

>  <SCORE.RESTR.CAVITY>
0

>  <SCORE.RESTR.norm>
0

>  <SCORE.SYSTEM>
0

>  <SCORE.SYSTEM.CONST>
0

>  <SCORE.SYSTEM.DIHEDRAL>
0

>  <SCORE.SYSTEM.norm>
0

>  <SCORE.heavy>
40

>  <SCORE.norm>
-0.396377

$$$$
ligands/mol4.pdb
  rDOCK(R)          3D
libRbt.so/2013.1/901 2013/11/27
 46 49  0  0  0  0  0  0  0  0999 V2000
  -14.1790  -20.4220   -3.8499 N   0  0  0  0  0  0
  -14.8158  -20.5084   -2.2982 S   0  0  0  0  0  0
  -13.7191  -20.3339   -1.3945 O   0  0  0  0  0  0
  -15.9685  -19.6199   -2.3174 O   0  0  0  0  0  0
  -15.3737  -22.1852   -2.2034 C   0  0  0  0  0  0
  -16.5762  -22.4869   -1.5633 C   0  0  0  0  0  0
  -16.9970  -23.8148   -1.4807 C   0  0  0  0  0  0
  -16.2201  -24.8533   -2.0207 C   0  0  0  0  0  0
  -16.6891  -26.2925   -1.9287 C   0  0  0  0  0  0
  -15.8595  -27.1621   -1.0048 C   0  0  0  0  0  0
  -15.8108  -26.9076    0.3714 C   0  0  0  0  0  0
  -15.0185  -27.6946    1.2091 C   0  0  0  0  0  0
  -14.2618  -28.7478    0.6890 C   0  0  0  0  0  0
  -14.2669  -28.9983   -0.6799 C   0  0  0  0  0  0
  -13.4583  -29.9683   -1.3103 N   0  0  0  0  0  0
  -13.6335  -30.5832   -2.5476 C   0  0  0  0  0  0
  -14.5622  -30.4052   -3.3230 O   0  0  0  0  0  0
  -12.5597  -31.4297   -2.8062 N   0  0  0  0  0  0
  -12.3165  -32.2060   -3.9227 C   0  0  0  0  0  0
  -11.1533  -32.8641   -4.1211 C   0  0  0  0  0  0
   -9.9963  -32.8798   -3.1356 C   0  0  0  0  0  0
   -9.5041  -34.2743   -2.7342 C   0  0  0  0  0  0
   -8.6748  -34.2188   -1.5409 N   0  0  0  0  0  0
   -7.4493  -33.6012   -1.5578 C   0  0  0  0  0  0
   -6.9646  -33.1561   -2.5931 O   0  0  0  0  0  0
   -6.7083  -33.6066   -0.2150 C   0  0  0  0  0  0
   -6.4348  -35.0498    0.2390 C   0  0  0  0  0  0
   -5.3024  -35.7185   -0.5490 C   0  0  0  0  0  0
   -4.0277  -34.8768   -0.5909 C   0  0  0  0  0  0
   -3.3902  -34.8988    0.6873 O   0  0  0  0  0  0
   -4.2977  -33.4340   -1.0229 C   0  0  0  0  0  0
   -5.4166  -32.7765   -0.2147 C   0  0  0  0  0  0
  -10.9583  -33.6769   -5.3912 C   0  0  0  0  0  0
  -11.8337  -33.1658   -6.5187 C   0  0  0  0  0  0
  -11.3869  -33.0729   -7.6581 O   0  0  0  0  0  0
  -13.1367  -32.9046   -6.1822 N   0  0  0  0  0  0
  -13.3491  -32.4727   -4.9779 C   0  0  0  0  0  0
  -15.0836  -28.2138   -1.5162 C   0  0  0  0  0  0
  -15.0164  -24.5314   -2.6679 C   0  0  0  0  0  0
  -14.5895  -23.2009   -2.7571 C   0  0  0  0  0  0
  -14.9135  -20.6261   -4.5273 H   0  0  0  0  0  0
  -13.3678  -21.0362   -3.9243 H   0  0  0  0  0  0
  -12.7556  -30.3631   -0.7049 H   0  0  0  0  0  0
  -11.8196  -31.3638   -2.1284 H   0  0  0  0  0  0
   -9.0875  -34.4387   -0.6426 H   0  0  0  0  0  0
   -4.0201  -34.5592    1.3439 H   0  0  0  0  0  0
  1  2  1  0  0  0
  1 41  1  0  0  0
  1 42  1  0  0  0
  2  3  2  0  0  0
  2  4  2  0  0  0
  2  5  1  0  0  0
  5  6  2  0  0  0
  5 40  1  0  0  0
  6  7  1  0  0  0
  7  8  2  0  0  0
  8  9  1  0  0  0
  8 39  1  0  0  0
  9 10  1  0  0  0
 10 11  2  0  0  0
 10 38  1  0  0  0
 11 12  1  0  0  0
 12 13  2  0  0  0
 13 14  1  0  0  0
 14 15  1  0  0  0
 14 38  2  0  0  0
 15 16  1  0  0  0
 15 43  1  0  0  0
 16 17  2  0  0  0
 16 18  1  0  0  0
 18 19  1  0  0  0
 18 44  1  0  0  0
 19 20  2  0  0  0
 19 37  1  0  0  0
 20 21  1  0  0  0
 20 33  1  0  0  0
 21 22  1  0  0  0
 22 23  1  0  0  0
 23 24  1  0  0  0
 23 45  1  0  0  0
 24 25  2  0  0  0
 24 26  1  0  0  0
 26 27  1  0  0  0
 26 32  1  0  0  0
 27 28  1  0  0  0
 28 29  1  0  0  0
 29 30  1  0  0  0
 29 31  1  0  0  0
 30 46  1  0  0  0
 31 32  1  0  0  0
 33 34  1  0  0  0
 34 35  2  0  0  0
 34 36  1  0  0  0
 36 37  2  0  0  0
 39 40  2  0  0  0
M  END
>  <AUTHOR>
    GENERATED BY OPEN BABEL 2.3.2

>  <CHROM.1>
174.89132833,-140.59680683,-111.15312668,64.59392738,159.02078923,171.77043164
126.25057052,-164.15122240,-66.86744377,60.98519901,-58.13520629,-11.91936628
-29.14956694,-2.19733075,-2.31213981,0.52241214,-2.73091937

>  <COMPND>
    UNNAMED

>  <MASTER>
        0    0    0    0    0    0    0    0   73    0   73    0

>  <Name>
ligands/mol4.pdb

>  <RI>
3.1026e+07

>  <Rbt.Current_Directory>
/home/rodrigo/Desktop/Rodrigo/Proyectos/test_OCONDOR/OCONDOR

>  <Rbt.Executable>
rbdock ($Id: //depot/dev/client3/rdock/2013.1/src/exe/rbdock.cxx#4 $)

>  <Rbt.Library>
libRbt.so (2013.1, Build901 2013/11/27)

>  <Rbt.Parameter_File>
dock.prm

>  <Rbt.Receptor>
rdock.prm

>  <SCORE>
-16.6119

>  <SCORE.INTER>
-15.3218

>  <SCORE.INTER.CONST>
1

>  <SCORE.INTER.POLAR>
-0.824575

>  <SCORE.INTER.REPUL>
0.0459716

>  <SCORE.INTER.ROT>
10

>  <SCORE.INTER.VDW>
-28.1481

>  <SCORE.INTER.norm>
-0.383045

>  <SCORE.INTRA>
-1.29016

>  <SCORE.INTRA.DIHEDRAL>
-1.08848

>  <SCORE.INTRA.DIHEDRAL.0>
8.51926

>  <SCORE.INTRA.POLAR>
0

>  <SCORE.INTRA.POLAR.0>
0

>  <SCORE.INTRA.REPUL>
0

>  <SCORE.INTRA.REPUL.0>
0

>  <SCORE.INTRA.VDW>
-0.745918

>  <SCORE.INTRA.VDW.0>
-1.46228

>  <SCORE.INTRA.norm>
-0.032254

>  <SCORE.RESTR>
0

>  <SCORE.RESTR.CAVITY>
0

>  <SCORE.RESTR.norm>
0

>  <SCORE.SYSTEM>
0

>  <SCORE.SYSTEM.CONST>
0

>  <SCORE.SYSTEM.DIHEDRAL>
0

>  <SCORE.SYSTEM.norm>
0

>  <SCORE.heavy>
40

>  <SCORE.norm>
-0.415299

$$$$
ligands/mol4.pdb
  rDOCK(R)          3D
libRbt.so/2013.1/901 2013/11/27
 46 49  0  0  0  0  0  0  0  0999 V2000
  -15.5612  -21.2906   -0.4083 N   0  0  0  0  0  0
  -13.9888  -21.8782   -0.4644 S   0  0  0  0  0  0
  -13.6004  -21.8796   -1.8424 O   0  0  0  0  0  0
  -13.2721  -21.1251    0.5544 O   0  0  0  0  0  0
  -14.1833  -23.5519    0.0767 C   0  0  0  0  0  0
  -15.4602  -24.0882    0.2461 C   0  0  0  0  0  0
  -15.6003  -25.4040    0.6891 C   0  0  0  0  0  0
  -14.4740  -26.1915    0.9803 C   0  0  0  0  0  0
  -14.6380  -27.6216    1.4574 C   0  0  0  0  0  0
  -14.6746  -28.6510    0.3452 C   0  0  0  0  0  0
  -15.8440  -28.8712   -0.3930 C   0  0  0  0  0  0
  -15.8766  -29.8439   -1.3938 C   0  0  0  0  0  0
  -14.7446  -30.6131   -1.6750 C   0  0  0  0  0  0
  -13.5815  -30.4366   -0.9317 C   0  0  0  0  0  0
  -12.4248  -31.2335   -1.0700 N   0  0  0  0  0  0
  -11.9891  -31.9585   -2.1764 C   0  0  0  0  0  0
  -12.5617  -32.0575   -3.2524 O   0  0  0  0  0  0
  -10.7597  -32.5474   -1.8961 N   0  0  0  0  0  0
   -9.9624  -33.3227   -2.7155 C   0  0  0  0  0  0
   -8.7618  -33.8066   -2.3283 C   0  0  0  0  0  0
   -8.1613  -33.6093   -0.9462 C   0  0  0  0  0  0
   -7.8239  -32.1586   -0.5858 C   0  0  0  0  0  0
   -7.0330  -31.5253   -1.6290 N   0  0  0  0  0  0
   -7.6182  -30.7112   -2.5663 C   0  0  0  0  0  0
   -8.8342  -30.5591   -2.6205 O   0  0  0  0  0  0
   -6.6466  -30.1007   -3.5837 C   0  0  0  0  0  0
   -6.3828  -31.0893   -4.7312 C   0  0  0  0  0  0
   -7.5595  -31.1972   -5.7079 C   0  0  0  0  0  0
   -8.0376  -29.8382   -6.2174 C   0  0  0  0  0  0
   -7.0883  -29.3063   -7.1429 O   0  0  0  0  0  0
   -8.2823  -28.8442   -5.0802 C   0  0  0  0  0  0
   -7.0922  -28.7353   -4.1266 C   0  0  0  0  0  0
   -7.9358  -34.6315   -3.3026 C   0  0  0  0  0  0
   -8.2813  -34.3030   -4.7419 C   0  0  0  0  0  0
   -7.3943  -34.1901   -5.5829 O   0  0  0  0  0  0
   -9.6204  -34.2265   -5.0246 N   0  0  0  0  0  0
  -10.3885  -33.7832   -4.0783 C   0  0  0  0  0  0
  -13.5491  -29.4402    0.0623 C   0  0  0  0  0  0
  -13.1964  -25.6387    0.7975 C   0  0  0  0  0  0
  -13.0483  -24.3201    0.3503 C   0  0  0  0  0  0
  -15.5676  -20.3160   -0.7084 H   0  0  0  0  0  0
  -15.9511  -21.4374    0.5230 H   0  0  0  0  0  0
  -11.9495  -31.4095   -0.1986 H   0  0  0  0  0  0
  -10.3657  -32.2627   -1.0157 H   0  0  0  0  0  0
   -6.0245  -31.5034   -1.5390 H   0  0  0  0  0  0
   -7.4621  -28.4955   -7.5252 H   0  0  0  0  0  0
  1  2  1  0  0  0
  1 41  1  0  0  0
  1 42  1  0  0  0
  2  3  2  0  0  0
  2  4  2  0  0  0
  2  5  1  0  0  0
  5  6  2  0  0  0
  5 40  1  0  0  0
  6  7  1  0  0  0
  7  8  2  0  0  0
  8  9  1  0  0  0
  8 39  1  0  0  0
  9 10  1  0  0  0
 10 11  2  0  0  0
 10 38  1  0  0  0
 11 12  1  0  0  0
 12 13  2  0  0  0
 13 14  1  0  0  0
 14 15  1  0  0  0
 14 38  2  0  0  0
 15 16  1  0  0  0
 15 43  1  0  0  0
 16 17  2  0  0  0
 16 18  1  0  0  0
 18 19  1  0  0  0
 18 44  1  0  0  0
 19 20  2  0  0  0
 19 37  1  0  0  0
 20 21  1  0  0  0
 20 33  1  0  0  0
 21 22  1  0  0  0
 22 23  1  0  0  0
 23 24  1  0  0  0
 23 45  1  0  0  0
 24 25  2  0  0  0
 24 26  1  0  0  0
 26 27  1  0  0  0
 26 32  1  0  0  0
 27 28  1  0  0  0
 28 29  1  0  0  0
 29 30  1  0  0  0
 29 31  1  0  0  0
 30 46  1  0  0  0
 31 32  1  0  0  0
 33 34  1  0  0  0
 34 35  2  0  0  0
 34 36  1  0  0  0
 36 37  2  0  0  0
 39 40  2  0  0  0
M  END
>  <AUTHOR>
    GENERATED BY OPEN BABEL 2.3.2

>  <CHROM.1>
-65.48607927,8.39278471,90.00669375,-79.75567931,25.50981272,178.05962958
-65.02534403,-50.66267264,98.60850480,83.88766912,173.68961672,-11.17853952
-29.07180470,-2.06761239,-2.28364128,-0.57995022,3.12210378

>  <COMPND>
    UNNAMED

>  <MASTER>
        0    0    0    0    0    0    0    0   73    0   73    0

>  <Name>
ligands/mol4.pdb

>  <RI>
3.1026e+07

>  <Rbt.Current_Directory>
/home/rodrigo/Desktop/Rodrigo/Proyectos/test_OCONDOR/OCONDOR

>  <Rbt.Executable>
rbdock ($Id: //depot/dev/client3/rdock/2013.1/src/exe/rbdock.cxx#4 $)

>  <Rbt.Library>
libRbt.so (2013.1, Build901 2013/11/27)

>  <Rbt.Parameter_File>
dock.prm

>  <Rbt.Receptor>
rdock.prm

>  <SCORE>
-16.2396

>  <SCORE.INTER>
-13.9158

>  <SCORE.INTER.CONST>
1

>  <SCORE.INTER.POLAR>
-0.831809

>  <SCORE.INTER.REPUL>
0.0066722

>  <SCORE.INTER.ROT>
10

>  <SCORE.INTER.VDW>
-26.521

>  <SCORE.INTER.norm>
-0.347895

>  <SCORE.INTRA>
-2.32382

>  <SCORE.INTRA.DIHEDRAL>
4.80942

>  <SCORE.INTRA.DIHEDRAL.0>
8.51926

>  <SCORE.INTRA.POLAR>
0

>  <SCORE.INTRA.POLAR.0>
0

>  <SCORE.INTRA.REPUL>
0

>  <SCORE.INTRA.REPUL.0>
0

>  <SCORE.INTRA.VDW>
-4.72853

>  <SCORE.INTRA.VDW.0>
-1.46228

>  <SCORE.INTRA.norm>
-0.0580954

>  <SCORE.RESTR>
0

>  <SCORE.RESTR.CAVITY>
0

>  <SCORE.RESTR.norm>
0

>  <SCORE.SYSTEM>
0

>  <SCORE.SYSTEM.CONST>
0

>  <SCORE.SYSTEM.DIHEDRAL>
0

>  <SCORE.SYSTEM.norm>
0

>  <SCORE.heavy>
40

>  <SCORE.norm>
-0.405991

$$$$
ligands/mol4.pdb
  rDOCK(R)          3D
libRbt.so/2013.1/901 2013/11/27
 46 49  0  0  0  0  0  0  0  0999 V2000
  -17.2877  -21.0467   -2.3290 N   0  0  0  0  0  0
  -16.5201  -21.6746   -0.9736 S   0  0  0  0  0  0
  -15.3749  -20.8501   -0.7319 O   0  0  0  0  0  0
  -17.5809  -21.8549    0.0066 O   0  0  0  0  0  0
  -15.9740  -23.2600   -1.5398 C   0  0  0  0  0  0
  -14.6736  -23.4216   -2.0191 C   0  0  0  0  0  0
  -14.2604  -24.6728   -2.4780 C   0  0  0  0  0  0
  -15.1396  -25.7686   -2.4774 C   0  0  0  0  0  0
  -14.6786  -27.1249   -2.9749 C   0  0  0  0  0  0
  -13.3601  -27.1011   -3.7227 C   0  0  0  0  0  0
  -13.1988  -26.3172   -4.8717 C   0  0  0  0  0  0
  -11.9908  -26.3269   -5.5713 C   0  0  0  0  0  0
  -10.9240  -27.1182   -5.1374 C   0  0  0  0  0  0
  -11.0719  -27.9320   -4.0183 C   0  0  0  0  0  0
  -10.0918  -28.8411   -3.5654 N   0  0  0  0  0  0
   -8.8481  -29.1345   -4.1192 C   0  0  0  0  0  0
   -8.3780  -28.6599   -5.1434 O   0  0  0  0  0  0
   -8.1770  -30.0445   -3.3079 N   0  0  0  0  0  0
   -6.9130  -30.5792   -3.4654 C   0  0  0  0  0  0
   -6.3273  -31.3668   -2.5369 C   0  0  0  0  0  0
   -6.9891  -31.8043   -1.2406 C   0  0  0  0  0  0
   -7.9675  -32.9760   -1.3741 C   0  0  0  0  0  0
   -9.0840  -32.8400   -0.4523 N   0  0  0  0  0  0
  -10.0433  -31.8763   -0.6386 C   0  0  0  0  0  0
   -9.9510  -31.0367   -1.5282 O   0  0  0  0  0  0
  -11.1669  -31.8777    0.4052 C   0  0  0  0  0  0
  -11.2790  -30.4970    1.0722 C   0  0  0  0  0  0
  -11.9314  -29.4475    0.1650 C   0  0  0  0  0  0
  -13.2631  -29.9128   -0.4226 C   0  0  0  0  0  0
  -14.2667  -29.9157    0.5940 O   0  0  0  0  0  0
  -13.1614  -31.2954   -1.0701 C   0  0  0  0  0  0
  -12.5258  -32.3338   -0.1452 C   0  0  0  0  0  0
   -4.9217  -31.8936   -2.7789 C   0  0  0  0  0  0
   -4.1471  -30.9979   -3.7257 C   0  0  0  0  0  0
   -2.9703  -30.7294   -3.5029 O   0  0  0  0  0  0
   -4.8260  -30.5977   -4.8474 N   0  0  0  0  0  0
   -6.1040  -30.4183   -4.7185 C   0  0  0  0  0  0
  -12.2857  -27.9020   -3.3057 C   0  0  0  0  0  0
  -16.4423  -25.5904   -1.9849 C   0  0  0  0  0  0
  -16.8628  -24.3384   -1.5199 C   0  0  0  0  0  0
  -17.4391  -20.0468   -2.1975 H   0  0  0  0  0  0
  -18.1424  -21.5717   -2.5153 H   0  0  0  0  0  0
  -10.4179  -29.4553   -2.8355 H   0  0  0  0  0  0
   -8.6464  -30.2355   -2.4392 H   0  0  0  0  0  0
   -9.2787  -33.5890    0.2008 H   0  0  0  0  0  0
  -14.3838  -29.0028    0.9042 H   0  0  0  0  0  0
  1  2  1  0  0  0
  1 41  1  0  0  0
  1 42  1  0  0  0
  2  3  2  0  0  0
  2  4  2  0  0  0
  2  5  1  0  0  0
  5  6  2  0  0  0
  5 40  1  0  0  0
  6  7  1  0  0  0
  7  8  2  0  0  0
  8  9  1  0  0  0
  8 39  1  0  0  0
  9 10  1  0  0  0
 10 11  2  0  0  0
 10 38  1  0  0  0
 11 12  1  0  0  0
 12 13  2  0  0  0
 13 14  1  0  0  0
 14 15  1  0  0  0
 14 38  2  0  0  0
 15 16  1  0  0  0
 15 43  1  0  0  0
 16 17  2  0  0  0
 16 18  1  0  0  0
 18 19  1  0  0  0
 18 44  1  0  0  0
 19 20  2  0  0  0
 19 37  1  0  0  0
 20 21  1  0  0  0
 20 33  1  0  0  0
 21 22  1  0  0  0
 22 23  1  0  0  0
 23 24  1  0  0  0
 23 45  1  0  0  0
 24 25  2  0  0  0
 24 26  1  0  0  0
 26 27  1  0  0  0
 26 32  1  0  0  0
 27 28  1  0  0  0
 28 29  1  0  0  0
 29 30  1  0  0  0
 29 31  1  0  0  0
 30 46  1  0  0  0
 31 32  1  0  0  0
 33 34  1  0  0  0
 34 35  2  0  0  0
 34 36  1  0  0  0
 36 37  2  0  0  0
 39 40  2  0  0  0
M  END
>  <AUTHOR>
    GENERATED BY OPEN BABEL 2.3.2

>  <CHROM.1>
-51.54317751,95.63453459,-12.75641805,-58.51907111,-1.64495304,173.84627969
79.94640129,-145.33576859,70.49242091,124.06894188,62.77574738,-11.46665551
-28.05213417,-2.20586512,-2.60758982,-0.51916030,2.58542786

>  <COMPND>
    UNNAMED

>  <MASTER>
        0    0    0    0    0    0    0    0   73    0   73    0

>  <Name>
ligands/mol4.pdb

>  <RI>
3.1026e+07

>  <Rbt.Current_Directory>
/home/rodrigo/Desktop/Rodrigo/Proyectos/test_OCONDOR/OCONDOR

>  <Rbt.Executable>
rbdock ($Id: //depot/dev/client3/rdock/2013.1/src/exe/rbdock.cxx#4 $)

>  <Rbt.Library>
libRbt.so (2013.1, Build901 2013/11/27)

>  <Rbt.Parameter_File>
dock.prm

>  <Rbt.Receptor>
rdock.prm

>  <SCORE>
-19.1562

>  <SCORE.INTER>
-12.1185

>  <SCORE.INTER.CONST>
1

>  <SCORE.INTER.POLAR>
-0.837793

>  <SCORE.INTER.REPUL>
0.00851962

>  <SCORE.INTER.ROT>
10

>  <SCORE.INTER.VDW>
-24.7126

>  <SCORE.INTER.norm>
-0.302964

>  <SCORE.INTRA>
-7.03762

>  <SCORE.INTRA.DIHEDRAL>
5.51029

>  <SCORE.INTRA.DIHEDRAL.0>
8.51926

>  <SCORE.INTRA.POLAR>
-1.93427

>  <SCORE.INTRA.POLAR.0>
0

>  <SCORE.INTRA.REPUL>
0

>  <SCORE.INTRA.REPUL.0>
0

>  <SCORE.INTRA.VDW>
-3.21626

>  <SCORE.INTRA.VDW.0>
-1.46228

>  <SCORE.INTRA.norm>
-0.175941

>  <SCORE.RESTR>
0

>  <SCORE.RESTR.CAVITY>
0

>  <SCORE.RESTR.norm>
0

>  <SCORE.SYSTEM>
0

>  <SCORE.SYSTEM.CONST>
0

>  <SCORE.SYSTEM.DIHEDRAL>
0

>  <SCORE.SYSTEM.norm>
0

>  <SCORE.heavy>
40

>  <SCORE.norm>
-0.478904

$$$$
ligands/mol4.pdb
  rDOCK(R)          3D
libRbt.so/2013.1/901 2013/11/27
 46 49  0  0  0  0  0  0  0  0999 V2000
  -14.5668  -23.8850    0.3825 N   0  0  0  0  0  0
  -15.7039  -25.0835    0.0800 S   0  0  0  0  0  0
  -16.2064  -25.5028    1.3533 O   0  0  0  0  0  0
  -16.5592  -24.5327   -0.9609 O   0  0  0  0  0  0
  -14.7190  -26.3856   -0.6031 C   0  0  0  0  0  0
  -13.8322  -27.0920    0.2102 C   0  0  0  0  0  0
  -13.0493  -28.1054   -0.3440 C   0  0  0  0  0  0
  -13.1311  -28.4147   -1.7120 C   0  0  0  0  0  0
  -12.2783  -29.5208   -2.3028 C   0  0  0  0  0  0
  -12.2212  -30.7818   -1.4634 C   0  0  0  0  0  0
  -13.3506  -31.2378   -0.7724 C   0  0  0  0  0  0
  -13.2790  -32.3825    0.0235 C   0  0  0  0  0  0
  -12.0808  -33.0911    0.1440 C   0  0  0  0  0  0
  -10.9364  -32.6379   -0.5052 C   0  0  0  0  0  0
   -9.6602  -33.2233   -0.3615 N   0  0  0  0  0  0
   -8.4065  -32.6279   -0.4767 C   0  0  0  0  0  0
   -8.1795  -31.4593   -0.7563 O   0  0  0  0  0  0
   -7.4159  -33.5623   -0.1899 N   0  0  0  0  0  0
   -6.0455  -33.3913   -0.1571 C   0  0  0  0  0  0
   -5.1751  -34.4241   -0.1902 C   0  0  0  0  0  0
   -5.5786  -35.8839   -0.3175 C   0  0  0  0  0  0
   -6.4830  -36.2058   -1.5118 C   0  0  0  0  0  0
   -6.0564  -35.4924   -2.7051 N   0  0  0  0  0  0
   -5.1190  -36.0269   -3.5532 C   0  0  0  0  0  0
   -4.5379  -37.0758   -3.2948 O   0  0  0  0  0  0
   -4.7942  -35.1635   -4.7783 C   0  0  0  0  0  0
   -4.5178  -33.7124   -4.3519 C   0  0  0  0  0  0
   -3.1470  -33.5365   -3.6886 C   0  0  0  0  0  0
   -2.0042  -34.1202   -4.5182 C   0  0  0  0  0  0
   -1.7579  -33.2910   -5.6550 O   0  0  0  0  0  0
   -2.2833  -35.5577   -4.9621 C   0  0  0  0  0  0
   -3.6461  -35.7115   -5.6380 C   0  0  0  0  0  0
   -3.6812  -34.1485   -0.1243 C   0  0  0  0  0  0
   -3.3886  -32.8289    0.5624 C   0  0  0  0  0  0
   -2.4641  -32.7383    1.3647 O   0  0  0  0  0  0
   -4.1644  -31.7714    0.1636 N   0  0  0  0  0  0
   -5.3857  -32.0441   -0.1770 C   0  0  0  0  0  0
  -11.0205  -31.4946   -1.3224 C   0  0  0  0  0  0
  -14.0339  -27.6991   -2.5145 C   0  0  0  0  0  0
  -14.8249  -26.6830   -1.9646 C   0  0  0  0  0  0
  -14.8701  -23.3263    1.1799 H   0  0  0  0  0  0
  -14.4064  -23.3402   -0.4651 H   0  0  0  0  0  0
   -9.6804  -34.2305   -0.3229 H   0  0  0  0  0  0
   -7.7727  -34.4402    0.1469 H   0  0  0  0  0  0
   -6.6042  -34.7058   -3.0319 H   0  0  0  0  0  0
   -1.5590  -32.3951   -5.3369 H   0  0  0  0  0  0
  1  2  1  0  0  0
  1 41  1  0  0  0
  1 42  1  0  0  0
  2  3  2  0  0  0
  2  4  2  0  0  0
  2  5  1  0  0  0
  5  6  2  0  0  0
  5 40  1  0  0  0
  6  7  1  0  0  0
  7  8  2  0  0  0
  8  9  1  0  0  0
  8 39  1  0  0  0
  9 10  1  0  0  0
 10 11  2  0  0  0
 10 38  1  0  0  0
 11 12  1  0  0  0
 12 13  2  0  0  0
 13 14  1  0  0  0
 14 15  1  0  0  0
 14 38  2  0  0  0
 15 16  1  0  0  0
 15 43  1  0  0  0
 16 17  2  0  0  0
 16 18  1  0  0  0
 18 19  1  0  0  0
 18 44  1  0  0  0
 19 20  2  0  0  0
 19 37  1  0  0  0
 20 21  1  0  0  0
 20 33  1  0  0  0
 21 22  1  0  0  0
 22 23  1  0  0  0
 23 24  1  0  0  0
 23 45  1  0  0  0
 24 25  2  0  0  0
 24 26  1  0  0  0
 26 27  1  0  0  0
 26 32  1  0  0  0
 27 28  1  0  0  0
 28 29  1  0  0  0
 29 30  1  0  0  0
 29 31  1  0  0  0
 30 46  1  0  0  0
 31 32  1  0  0  0
 33 34  1  0  0  0
 34 35  2  0  0  0
 34 36  1  0  0  0
 36 37  2  0  0  0
 39 40  2  0  0  0
M  END
>  <AUTHOR>
    GENERATED BY OPEN BABEL 2.3.2

>  <CHROM.1>
-35.73672357,70.41612264,43.75244002,37.51170024,-151.43841533,-163.22389078
53.91617546,41.26008521,88.04375533,48.68793975,57.37260939,-8.81948859,-31.47875704
-1.40470311,-2.94347379,-0.63033494,2.18198608

>  <COMPND>
    UNNAMED

>  <MASTER>
        0    0    0    0    0    0    0    0   73    0   73    0

>  <Name>
ligands/mol4.pdb

>  <RI>
3.1026e+07

>  <Rbt.Current_Directory>
/home/rodrigo/Desktop/Rodrigo/Proyectos/test_OCONDOR/OCONDOR

>  <Rbt.Executable>
rbdock ($Id: //depot/dev/client3/rdock/2013.1/src/exe/rbdock.cxx#4 $)

>  <Rbt.Library>
libRbt.so (2013.1, Build901 2013/11/27)

>  <Rbt.Parameter_File>
dock.prm

>  <Rbt.Receptor>
rdock.prm

>  <SCORE>
-7.47344

>  <SCORE.INTER>
-10.1556

>  <SCORE.INTER.CONST>
1

>  <SCORE.INTER.POLAR>
-2.20246

>  <SCORE.INTER.REPUL>
0

>  <SCORE.INTER.ROT>
10

>  <SCORE.INTER.VDW>
-18.0672

>  <SCORE.INTER.norm>
-0.25389

>  <SCORE.INTRA>
2.68216

>  <SCORE.INTRA.DIHEDRAL>
10.8278

>  <SCORE.INTRA.DIHEDRAL.0>
8.51926

>  <SCORE.INTRA.POLAR>
0

>  <SCORE.INTRA.POLAR.0>
0

>  <SCORE.INTRA.REPUL>
0

>  <SCORE.INTRA.REPUL.0>
0

>  <SCORE.INTRA.VDW>
-2.73175

>  <SCORE.INTRA.VDW.0>
-1.46228

>  <SCORE.INTRA.norm>
0.067054

>  <SCORE.RESTR>
0

>  <SCORE.RESTR.CAVITY>
0

>  <SCORE.RESTR.norm>
0

>  <SCORE.SYSTEM>
0

>  <SCORE.SYSTEM.CONST>
0

>  <SCORE.SYSTEM.DIHEDRAL>
0

>  <SCORE.SYSTEM.norm>
0

>  <SCORE.heavy>
40

>  <SCORE.norm>
-0.186836

$$$$
ligands/mol4.pdb
  rDOCK(R)          3D
libRbt.so/2013.1/901 2013/11/27
 46 49  0  0  0  0  0  0  0  0999 V2000
   -8.6598  -33.1589   -0.3814 N   0  0  0  0  0  0
   -9.5062  -33.5961   -1.7645 S   0  0  0  0  0  0
   -8.9274  -34.8201   -2.2299 O   0  0  0  0  0  0
  -10.9095  -33.4793   -1.3962 O   0  0  0  0  0  0
   -9.0908  -32.3005   -2.8963 C   0  0  0  0  0  0
   -8.1266  -31.3528   -2.5510 C   0  0  0  0  0  0
   -7.8199  -30.3266   -3.4453 C   0  0  0  0  0  0
   -8.4782  -30.2261   -4.6823 C   0  0  0  0  0  0
   -8.1340  -29.1088   -5.6482 C   0  0  0  0  0  0
   -7.9795  -27.7474   -4.9994 C   0  0  0  0  0  0
   -6.7111  -27.2150   -4.7377 C   0  0  0  0  0  0
   -6.5798  -25.9746   -4.1107 C   0  0  0  0  0  0
   -7.7103  -25.2449   -3.7341 C   0  0  0  0  0  0
   -8.9809  -25.7689   -3.9523 C   0  0  0  0  0  0
  -10.1754  -25.1574   -3.5148 N   0  0  0  0  0  0
  -11.4872  -25.6062   -3.6467 C   0  0  0  0  0  0
  -11.8524  -26.6311   -4.2048 O   0  0  0  0  0  0
  -12.3514  -24.7207   -3.0098 N   0  0  0  0  0  0
  -13.7240  -24.7960   -2.8724 C   0  0  0  0  0  0
  -14.4440  -23.8875   -2.1784 C   0  0  0  0  0  0
  -13.8570  -22.6546   -1.5110 C   0  0  0  0  0  0
  -13.8249  -22.6983    0.0203 C   0  0  0  0  0  0
  -13.3171  -23.9730    0.5021 N   0  0  0  0  0  0
  -14.1694  -25.0008    0.8199 C   0  0  0  0  0  0
  -15.3877  -24.8587    0.8009 O   0  0  0  0  0  0
  -13.4784  -26.2867    1.2901 C   0  0  0  0  0  0
  -14.5139  -27.2775    1.8466 C   0  0  0  0  0  0
  -15.3406  -27.9559    0.7482 C   0  0  0  0  0  0
  -14.4777  -28.5800   -0.3477 C   0  0  0  0  0  0
  -13.8421  -29.7592    0.1486 O   0  0  0  0  0  0
  -13.4321  -27.6039   -0.8908 C   0  0  0  0  0  0
  -12.6044  -26.9507    0.2164 C   0  0  0  0  0  0
  -15.9497  -24.0593   -2.0552 C   0  0  0  0  0  0
  -16.3583  -25.5113   -2.2078 C   0  0  0  0  0  0
  -17.2115  -25.9968   -1.4709 O   0  0  0  0  0  0
  -15.7735  -26.1825   -3.2502 N   0  0  0  0  0  0
  -14.5614  -25.8365   -3.5556 C   0  0  0  0  0  0
   -9.1066  -27.0109   -4.6032 C   0  0  0  0  0  0
   -9.4404  -31.1922   -5.0170 C   0  0  0  0  0  0
   -9.7511  -32.2265   -4.1258 C   0  0  0  0  0  0
   -8.7697  -33.8863    0.3249 H   0  0  0  0  0  0
   -8.9603  -32.2347   -0.0711 H   0  0  0  0  0  0
  -10.0522  -24.2051   -3.2079 H   0  0  0  0  0  0
  -11.8814  -23.9994   -2.4900 H   0  0  0  0  0  0
  -12.3322  -24.1835    0.3965 H   0  0  0  0  0  0
  -13.2494  -29.4997    0.8730 H   0  0  0  0  0  0
  1  2  1  0  0  0
  1 41  1  0  0  0
  1 42  1  0  0  0
  2  3  2  0  0  0
  2  4  2  0  0  0
  2  5  1  0  0  0
  5  6  2  0  0  0
  5 40  1  0  0  0
  6  7  1  0  0  0
  7  8  2  0  0  0
  8  9  1  0  0  0
  8 39  1  0  0  0
  9 10  1  0  0  0
 10 11  2  0  0  0
 10 38  1  0  0  0
 11 12  1  0  0  0
 12 13  2  0  0  0
 13 14  1  0  0  0
 14 15  1  0  0  0
 14 38  2  0  0  0
 15 16  1  0  0  0
 15 43  1  0  0  0
 16 17  2  0  0  0
 16 18  1  0  0  0
 18 19  1  0  0  0
 18 44  1  0  0  0
 19 20  2  0  0  0
 19 37  1  0  0  0
 20 21  1  0  0  0
 20 33  1  0  0  0
 21 22  1  0  0  0
 22 23  1  0  0  0
 23 24  1  0  0  0
 23 45  1  0  0  0
 24 25  2  0  0  0
 24 26  1  0  0  0
 26 27  1  0  0  0
 26 32  1  0  0  0
 27 28  1  0  0  0
 28 29  1  0  0  0
 29 30  1  0  0  0
 29 31  1  0  0  0
 30 46  1  0  0  0
 31 32  1  0  0  0
 33 34  1  0  0  0
 34 35  2  0  0  0
 34 36  1  0  0  0
 36 37  2  0  0  0
 39 40  2  0  0  0
M  END
>  <AUTHOR>
    GENERATED BY OPEN BABEL 2.3.2

>  <CHROM.1>
-61.19268832,7.16138687,-43.52001313,101.43170303,-178.18828338,177.29393815
-109.01377393,46.13994105,-93.75273154,170.22823207,-63.10887751,-11.68942071
-27.81146480,-2.12485904,0.67818646,-0.59354312,2.84001945

>  <COMPND>
    UNNAMED

>  <MASTER>
        0    0    0    0    0    0    0    0   73    0   73    0

>  <Name>
ligands/mol4.pdb

>  <RI>
3.1026e+07

>  <Rbt.Current_Directory>
/home/rodrigo/Desktop/Rodrigo/Proyectos/test_OCONDOR/OCONDOR

>  <Rbt.Executable>
rbdock ($Id: //depot/dev/client3/rdock/2013.1/src/exe/rbdock.cxx#4 $)

>  <Rbt.Library>
libRbt.so (2013.1, Build901 2013/11/27)

>  <Rbt.Parameter_File>
dock.prm

>  <Rbt.Receptor>
rdock.prm

>  <SCORE>
-15.1653

>  <SCORE.INTER>
-9.31929

>  <SCORE.INTER.CONST>
1

>  <SCORE.INTER.POLAR>
-0.911026

>  <SCORE.INTER.REPUL>
0.0212607

>  <SCORE.INTER.ROT>
10

>  <SCORE.INTER.VDW>
-21.7281

>  <SCORE.INTER.norm>
-0.232982

>  <SCORE.INTRA>
-5.846

>  <SCORE.INTRA.DIHEDRAL>
-2.62367

>  <SCORE.INTRA.DIHEDRAL.0>
8.51926

>  <SCORE.INTRA.POLAR>
0

>  <SCORE.INTRA.POLAR.0>
0

>  <SCORE.INTRA.REPUL>
0

>  <SCORE.INTRA.REPUL.0>
0

>  <SCORE.INTRA.VDW>
-4.53416

>  <SCORE.INTRA.VDW.0>
-1.46228

>  <SCORE.INTRA.norm>
-0.14615

>  <SCORE.RESTR>
0

>  <SCORE.RESTR.CAVITY>
0

>  <SCORE.RESTR.norm>
0

>  <SCORE.SYSTEM>
0

>  <SCORE.SYSTEM.CONST>
0

>  <SCORE.SYSTEM.DIHEDRAL>
0

>  <SCORE.SYSTEM.norm>
0

>  <SCORE.heavy>
40

>  <SCORE.norm>
-0.379132

$$$$
ligands/mol4.pdb
  rDOCK(R)          3D
libRbt.so/2013.1/901 2013/11/27
 46 49  0  0  0  0  0  0  0  0999 V2000
  -11.6881  -31.5902   -6.6836 N   0  0  0  0  0  0
  -12.2124  -32.8283   -5.6772 S   0  0  0  0  0  0
  -13.3024  -33.4690   -6.3488 O   0  0  0  0  0  0
  -11.0000  -33.5358   -5.2926 O   0  0  0  0  0  0
  -12.8419  -31.9468   -4.2776 C   0  0  0  0  0  0
  -14.0190  -31.2061   -4.3892 C   0  0  0  0  0  0
  -14.4961  -30.5021   -3.2829 C   0  0  0  0  0  0
  -13.8003  -30.5173   -2.0625 C   0  0  0  0  0  0
  -14.3301  -29.7517   -0.8655 C   0  0  0  0  0  0
  -13.3104  -28.8481   -0.2007 C   0  0  0  0  0  0
  -12.2779  -29.3811    0.5807 C   0  0  0  0  0  0
  -11.3630  -28.5387    1.2148 C   0  0  0  0  0  0
  -11.4624  -27.1514    1.0807 C   0  0  0  0  0  0
  -12.5003  -26.5970    0.3379 C   0  0  0  0  0  0
  -12.7448  -25.2110    0.2306 N   0  0  0  0  0  0
  -13.4396  -24.5192   -0.7584 C   0  0  0  0  0  0
  -13.9575  -25.0014   -1.7558 O   0  0  0  0  0  0
  -13.4955  -23.1673   -0.4331 N   0  0  0  0  0  0
  -14.1089  -22.1353   -1.1166 C   0  0  0  0  0  0
  -14.1517  -20.8681   -0.6501 C   0  0  0  0  0  0
  -13.4979  -20.4057    0.6417 C   0  0  0  0  0  0
  -11.9657  -20.3930    0.6256 C   0  0  0  0  0  0
  -11.4552  -19.7153   -0.5555 N   0  0  0  0  0  0
  -11.2290  -20.4003   -1.7231 C   0  0  0  0  0  0
  -11.3573  -21.6183   -1.7926 O   0  0  0  0  0  0
  -10.7135  -19.5400   -2.8834 C   0  0  0  0  0  0
   -9.1863  -19.6681   -3.0067 C   0  0  0  0  0  0
   -8.7472  -21.0043   -3.6167 C   0  0  0  0  0  0
   -9.4596  -21.3223   -4.9306 C   0  0  0  0  0  0
   -8.9579  -20.4805   -5.9700 O   0  0  0  0  0  0
  -10.9786  -21.1767   -4.8184 C   0  0  0  0  0  0
  -11.3994  -19.8316   -4.2258 C   0  0  0  0  0  0
  -14.8702  -19.7964   -1.4546 C   0  0  0  0  0  0
  -15.9365  -20.3948   -2.3510 C   0  0  0  0  0  0
  -17.0312  -19.8507   -2.4620 O   0  0  0  0  0  0
  -15.5570  -21.5057   -3.0589 N   0  0  0  0  0  0
  -14.7045  -22.2963   -2.4841 C   0  0  0  0  0  0
  -13.4074  -27.4527   -0.3155 C   0  0  0  0  0  0
  -12.6214  -31.2737   -1.9654 C   0  0  0  0  0  0
  -12.1385  -31.9851   -3.0705 C   0  0  0  0  0  0
  -12.4325  -31.3497   -7.3378 H   0  0  0  0  0  0
  -10.8139  -31.8598   -7.1352 H   0  0  0  0  0  0
  -12.2097  -24.6555    0.8797 H   0  0  0  0  0  0
  -13.1345  -22.9556    0.4814 H   0  0  0  0  0  0
  -11.4730  -18.7034   -0.5902 H   0  0  0  0  0  0
   -8.0057  -20.6492   -6.0610 H   0  0  0  0  0  0
  1  2  1  0  0  0
  1 41  1  0  0  0
  1 42  1  0  0  0
  2  3  2  0  0  0
  2  4  2  0  0  0
  2  5  1  0  0  0
  5  6  2  0  0  0
  5 40  1  0  0  0
  6  7  1  0  0  0
  7  8  2  0  0  0
  8  9  1  0  0  0
  8 39  1  0  0  0
  9 10  1  0  0  0
 10 11  2  0  0  0
 10 38  1  0  0  0
 11 12  1  0  0  0
 12 13  2  0  0  0
 13 14  1  0  0  0
 14 15  1  0  0  0
 14 38  2  0  0  0
 15 16  1  0  0  0
 15 43  1  0  0  0
 16 17  2  0  0  0
 16 18  1  0  0  0
 18 19  1  0  0  0
 18 44  1  0  0  0
 19 20  2  0  0  0
 19 37  1  0  0  0
 20 21  1  0  0  0
 20 33  1  0  0  0
 21 22  1  0  0  0
 22 23  1  0  0  0
 23 24  1  0  0  0
 23 45  1  0  0  0
 24 25  2  0  0  0
 24 26  1  0  0  0
 26 27  1  0  0  0
 26 32  1  0  0  0
 27 28  1  0  0  0
 28 29  1  0  0  0
 29 30  1  0  0  0
 29 31  1  0  0  0
 30 46  1  0  0  0
 31 32  1  0  0  0
 33 34  1  0  0  0
 34 35  2  0  0  0
 34 36  1  0  0  0
 36 37  2  0  0  0
 39 40  2  0  0  0
M  END
>  <AUTHOR>
    GENERATED BY OPEN BABEL 2.3.2

>  <CHROM.1>
20.71548428,70.27592372,-129.41467526,-73.57433022,157.88416567,176.19927217
69.05952500,49.18940565,-88.70680239,98.63424460,60.12625984,-12.59200394
-25.38290435,-2.43354586,-1.61428973,0.99780526,0.19374155

>  <COMPND>
    UNNAMED

>  <MASTER>
        0    0    0    0    0    0    0    0   73    0   73    0

>  <Name>
ligands/mol4.pdb

>  <RI>
3.1026e+07

>  <Rbt.Current_Directory>
/home/rodrigo/Desktop/Rodrigo/Proyectos/test_OCONDOR/OCONDOR

>  <Rbt.Executable>
rbdock ($Id: //depot/dev/client3/rdock/2013.1/src/exe/rbdock.cxx#4 $)

>  <Rbt.Library>
libRbt.so (2013.1, Build901 2013/11/27)

>  <Rbt.Parameter_File>
dock.prm

>  <Rbt.Receptor>
rdock.prm

>  <SCORE>
-9.65937

>  <SCORE.INTER>
-8.14949

>  <SCORE.INTER.CONST>
1

>  <SCORE.INTER.POLAR>
-0.974997

>  <SCORE.INTER.REPUL>
0

>  <SCORE.INTER.ROT>
10

>  <SCORE.INTER.VDW>
-20.2345

>  <SCORE.INTER.norm>
-0.203737

>  <SCORE.INTRA>
-1.50988

>  <SCORE.INTRA.DIHEDRAL>
4.45532

>  <SCORE.INTRA.DIHEDRAL.0>
8.51926

>  <SCORE.INTRA.POLAR>
0

>  <SCORE.INTRA.POLAR.0>
0

>  <SCORE.INTRA.REPUL>
0

>  <SCORE.INTRA.REPUL.0>
0

>  <SCORE.INTRA.VDW>
-3.73754

>  <SCORE.INTRA.VDW.0>
-1.46228

>  <SCORE.INTRA.norm>
-0.037747

>  <SCORE.RESTR>
0

>  <SCORE.RESTR.CAVITY>
0

>  <SCORE.RESTR.norm>
0

>  <SCORE.SYSTEM>
0

>  <SCORE.SYSTEM.CONST>
0

>  <SCORE.SYSTEM.DIHEDRAL>
0

>  <SCORE.SYSTEM.norm>
0

>  <SCORE.heavy>
40

>  <SCORE.norm>
-0.241484

$$$$
ligands/mol4.pdb
  rDOCK(R)          3D
libRbt.so/2013.1/901 2013/11/27
 46 49  0  0  0  0  0  0  0  0999 V2000
  -14.2700  -19.6843   -1.1487 N   0  0  0  0  0  0
  -15.1345  -20.8124   -2.0434 S   0  0  0  0  0  0
  -16.5039  -20.3956   -2.0157 O   0  0  0  0  0  0
  -14.3829  -20.9632   -3.2807 O   0  0  0  0  0  0
  -14.9649  -22.2841   -1.0752 C   0  0  0  0  0  0
  -13.7025  -22.7006   -0.6514 C   0  0  0  0  0  0
  -13.5802  -23.8716    0.0975 C   0  0  0  0  0  0
  -14.7087  -24.6444    0.4187 C   0  0  0  0  0  0
  -14.5646  -25.9132    1.2366 C   0  0  0  0  0  0
  -14.6181  -27.1908    0.4223 C   0  0  0  0  0  0
  -15.7943  -27.9470    0.3465 C   0  0  0  0  0  0
  -15.8239  -29.1388   -0.3799 C   0  0  0  0  0  0
  -14.6820  -29.5965   -1.0423 C   0  0  0  0  0  0
  -13.4921  -28.8803   -0.9531 C   0  0  0  0  0  0
  -12.2643  -29.3137   -1.4980 N   0  0  0  0  0  0
  -11.9823  -30.4847   -2.1971 C   0  0  0  0  0  0
  -12.7674  -31.3873   -2.4505 O   0  0  0  0  0  0
  -10.6534  -30.4752   -2.6100 N   0  0  0  0  0  0
   -9.9685  -31.4189   -3.3508 C   0  0  0  0  0  0
   -8.7382  -31.1988   -3.8641 C   0  0  0  0  0  0
   -7.9356  -29.9251   -3.6555 C   0  0  0  0  0  0
   -8.3411  -28.7484   -4.5495 C   0  0  0  0  0  0
   -9.7012  -28.3164   -4.2697 N   0  0  0  0  0  0
   -9.9664  -27.0355   -3.8542 C   0  0  0  0  0  0
   -9.0681  -26.2356   -3.6132 O   0  0  0  0  0  0
  -11.4514  -26.7290   -3.6240 C   0  0  0  0  0  0
  -11.6105  -25.5889   -2.6049 C   0  0  0  0  0  0
  -11.2724  -24.2134   -3.1911 C   0  0  0  0  0  0
  -12.0104  -23.9246   -4.4977 C   0  0  0  0  0  0
  -13.3896  -23.6677   -4.2286 O   0  0  0  0  0  0
  -11.8717  -25.0653   -5.5079 C   0  0  0  0  0  0
  -12.2305  -26.4270   -4.9122 C   0  0  0  0  0  0
   -8.0650  -32.2834   -4.6901 C   0  0  0  0  0  0
   -9.0821  -33.2127   -5.3231 C   0  0  0  0  0  0
   -8.9427  -33.5874   -6.4836 O   0  0  0  0  0  0
  -10.0849  -33.6430   -4.4934 N   0  0  0  0  0  0
  -10.4785  -32.8111   -3.5796 C   0  0  0  0  0  0
  -13.4744  -27.6690   -0.2358 C   0  0  0  0  0  0
  -15.9723  -24.2069   -0.0093 C   0  0  0  0  0  0
  -16.1028  -23.0312   -0.7585 C   0  0  0  0  0  0
  -14.3753  -18.7639   -1.5751 H   0  0  0  0  0  0
  -13.3001  -19.9871   -1.0569 H   0  0  0  0  0  0
  -11.4738  -28.7644   -1.1987 H   0  0  0  0  0  0
  -10.1807  -29.6052   -2.4335 H   0  0  0  0  0  0
  -10.4753  -28.8858   -4.5890 H   0  0  0  0  0  0
  -13.4514  -22.8234   -3.7526 H   0  0  0  0  0  0
  1  2  1  0  0  0
  1 41  1  0  0  0
  1 42  1  0  0  0
  2  3  2  0  0  0
  2  4  2  0  0  0
  2  5  1  0  0  0
  5  6  2  0  0  0
  5 40  1  0  0  0
  6  7  1  0  0  0
  7  8  2  0  0  0
  8  9  1  0  0  0
  8 39  1  0  0  0
  9 10  1  0  0  0
 10 11  2  0  0  0
 10 38  1  0  0  0
 11 12  1  0  0  0
 12 13  2  0  0  0
 13 14  1  0  0  0
 14 15  1  0  0  0
 14 38  2  0  0  0
 15 16  1  0  0  0
 15 43  1  0  0  0
 16 17  2  0  0  0
 16 18  1  0  0  0
 18 19  1  0  0  0
 18 44  1  0  0  0
 19 20  2  0  0  0
 19 37  1  0  0  0
 20 21  1  0  0  0
 20 33  1  0  0  0
 21 22  1  0  0  0
 22 23  1  0  0  0
 23 24  1  0  0  0
 23 45  1  0  0  0
 24 25  2  0  0  0
 24 26  1  0  0  0
 26 27  1  0  0  0
 26 32  1  0  0  0
 27 28  1  0  0  0
 28 29  1  0  0  0
 29 30  1  0  0  0
 29 31  1  0  0  0
 30 46  1  0  0  0
 31 32  1  0  0  0
 33 34  1  0  0  0
 34 35  2  0  0  0
 34 36  1  0  0  0
 36 37  2  0  0  0
 39 40  2  0  0  0
M  END
>  <AUTHOR>
    GENERATED BY OPEN BABEL 2.3.2

>  <CHROM.1>
-60.30059764,-50.59501805,-101.75772171,-99.65695401,-0.37225492,169.35753161
-79.68595711,63.80671735,120.38636082,154.28659442,68.39659647,-12.41405712
-26.83616157,-2.54536671,-2.25039879,-0.73925451,2.91694404

>  <COMPND>
    UNNAMED

>  <MASTER>
        0    0    0    0    0    0    0    0   73    0   73    0

>  <Name>
ligands/mol4.pdb

>  <RI>
3.1026e+07

>  <Rbt.Current_Directory>
/home/rodrigo/Desktop/Rodrigo/Proyectos/test_OCONDOR/OCONDOR

>  <Rbt.Executable>
rbdock ($Id: //depot/dev/client3/rdock/2013.1/src/exe/rbdock.cxx#4 $)

>  <Rbt.Library>
libRbt.so (2013.1, Build901 2013/11/27)

>  <Rbt.Parameter_File>
dock.prm

>  <Rbt.Receptor>
rdock.prm

>  <SCORE>
-16.448

>  <SCORE.INTER>
-7.89628

>  <SCORE.INTER.CONST>
1

>  <SCORE.INTER.POLAR>
-0.600507

>  <SCORE.INTER.REPUL>
7.5167e-05

>  <SCORE.INTER.ROT>
10

>  <SCORE.INTER.VDW>
-21.2549

>  <SCORE.INTER.norm>
-0.197407

>  <SCORE.INTRA>
-8.55167

>  <SCORE.INTRA.DIHEDRAL>
1.05567

>  <SCORE.INTRA.DIHEDRAL.0>
8.51926

>  <SCORE.INTRA.POLAR>
-1

>  <SCORE.INTRA.POLAR.0>
0

>  <SCORE.INTRA.REPUL>
0

>  <SCORE.INTRA.REPUL.0>
0

>  <SCORE.INTRA.VDW>
-5.6795

>  <SCORE.INTRA.VDW.0>
-1.46228

>  <SCORE.INTRA.norm>
-0.213792

>  <SCORE.RESTR>
0

>  <SCORE.RESTR.CAVITY>
0

>  <SCORE.RESTR.norm>
0

>  <SCORE.SYSTEM>
0

>  <SCORE.SYSTEM.CONST>
0

>  <SCORE.SYSTEM.DIHEDRAL>
0

>  <SCORE.SYSTEM.norm>
0

>  <SCORE.heavy>
40

>  <SCORE.norm>
-0.411199

$$$$
ligands/mol4.pdb
  rDOCK(R)          3D
libRbt.so/2013.1/901 2013/11/27
 46 49  0  0  0  0  0  0  0  0999 V2000
   -3.9194  -32.9937   -0.8062 N   0  0  0  0  0  0
   -4.9610  -31.8819   -0.0994 S   0  0  0  0  0  0
   -5.9505  -32.6381    0.6067 O   0  0  0  0  0  0
   -4.0895  -30.9190    0.5578 O   0  0  0  0  0  0
   -5.7198  -31.1178   -1.5039 C   0  0  0  0  0  0
   -6.9669  -31.5565   -1.9499 C   0  0  0  0  0  0
   -7.5471  -30.9570   -3.0684 C   0  0  0  0  0  0
   -6.8869  -29.9276   -3.7599 C   0  0  0  0  0  0
   -7.5285  -29.2805   -4.9720 C   0  0  0  0  0  0
   -8.1793  -27.9399   -4.6934 C   0  0  0  0  0  0
   -7.5850  -26.7480   -5.1259 C   0  0  0  0  0  0
   -8.1760  -25.5168   -4.8364 C   0  0  0  0  0  0
   -9.3686  -25.4534   -4.1111 C   0  0  0  0  0  0
   -9.9596  -26.6222   -3.6409 C   0  0  0  0  0  0
  -11.1031  -26.6540   -2.8141 N   0  0  0  0  0  0
  -11.7786  -25.5942   -2.2141 C   0  0  0  0  0  0
  -11.4778  -24.4106   -2.2782 O   0  0  0  0  0  0
  -12.8960  -26.0739   -1.5374 N   0  0  0  0  0  0
  -13.8534  -25.3685   -0.8344 C   0  0  0  0  0  0
  -14.9354  -25.9542   -0.2761 C   0  0  0  0  0  0
  -15.2126  -27.4483   -0.3021 C   0  0  0  0  0  0
  -14.3526  -28.2851    0.6509 C   0  0  0  0  0  0
  -14.0870  -29.6052    0.1019 N   0  0  0  0  0  0
  -13.1931  -29.7789   -0.9250 C   0  0  0  0  0  0
  -12.6553  -28.8268   -1.4809 O   0  0  0  0  0  0
  -13.0064  -31.2329   -1.3756 C   0  0  0  0  0  0
  -14.3612  -31.8537   -1.7537 C   0  0  0  0  0  0
  -14.8898  -31.3551   -3.1036 C   0  0  0  0  0  0
  -13.8640  -31.4824   -4.2291 C   0  0  0  0  0  0
  -13.7135  -32.8552   -4.5946 O   0  0  0  0  0  0
  -12.5078  -30.8838   -3.8501 C   0  0  0  0  0  0
  -11.9870  -31.4057   -2.5107 C   0  0  0  0  0  0
  -15.9551  -25.0995    0.4598 C   0  0  0  0  0  0
  -15.9411  -23.6666   -0.0355 C   0  0  0  0  0  0
  -16.9939  -23.0616   -0.2148 O   0  0  0  0  0  0
  -14.6993  -23.1048   -0.1817 N   0  0  0  0  0  0
  -13.7408  -23.9018   -0.5398 C   0  0  0  0  0  0
   -9.3694  -27.8614   -3.9536 C   0  0  0  0  0  0
   -5.6359  -29.4932   -3.2933 C   0  0  0  0  0  0
   -5.0491  -30.0882   -2.1697 C   0  0  0  0  0  0
   -3.4077  -33.4877   -0.0754 H   0  0  0  0  0  0
   -3.3189  -32.5219   -1.4826 H   0  0  0  0  0  0
  -11.3538  -27.5811   -2.5078 H   0  0  0  0  0  0
  -13.0730  -27.0520   -1.6903 H   0  0  0  0  0  0
  -14.3904  -30.4235    0.6156 H   0  0  0  0  0  0
  -13.2139  -32.8922   -5.4267 H   0  0  0  0  0  0
  1  2  1  0  0  0
  1 41  1  0  0  0
  1 42  1  0  0  0
  2  3  2  0  0  0
  2  4  2  0  0  0
  2  5  1  0  0  0
  5  6  2  0  0  0
  5 40  1  0  0  0
  6  7  1  0  0  0
  7  8  2  0  0  0
  8  9  1  0  0  0
  8 39  1  0  0  0
  9 10  1  0  0  0
 10 11  2  0  0  0
 10 38  1  0  0  0
 11 12  1  0  0  0
 12 13  2  0  0  0
 13 14  1  0  0  0
 14 15  1  0  0  0
 14 38  2  0  0  0
 15 16  1  0  0  0
 15 43  1  0  0  0
 16 17  2  0  0  0
 16 18  1  0  0  0
 18 19  1  0  0  0
 18 44  1  0  0  0
 19 20  2  0  0  0
 19 37  1  0  0  0
 20 21  1  0  0  0
 20 33  1  0  0  0
 21 22  1  0  0  0
 22 23  1  0  0  0
 23 24  1  0  0  0
 23 45  1  0  0  0
 24 25  2  0  0  0
 24 26  1  0  0  0
 26 27  1  0  0  0
 26 32  1  0  0  0
 27 28  1  0  0  0
 28 29  1  0  0  0
 29 30  1  0  0  0
 29 31  1  0  0  0
 30 46  1  0  0  0
 31 32  1  0  0  0
 33 34  1  0  0  0
 34 35  2  0  0  0
 34 36  1  0  0  0
 36 37  2  0  0  0
 39 40  2  0  0  0
M  END
>  <AUTHOR>
    GENERATED BY OPEN BABEL 2.3.2

>  <CHROM.1>
-66.74069598,96.97060353,100.76883530,106.25018974,-6.50961022,176.47752729
74.85229844,-147.48686405,74.12309017,55.30516037,167.83425287,-10.67709969
-28.64529572,-1.91549014,0.52689651,-0.10497597,3.11044048

>  <COMPND>
    UNNAMED

>  <MASTER>
        0    0    0    0    0    0    0    0   73    0   73    0

>  <Name>
ligands/mol4.pdb

>  <RI>
3.1026e+07

>  <Rbt.Current_Directory>
/home/rodrigo/Desktop/Rodrigo/Proyectos/test_OCONDOR/OCONDOR

>  <Rbt.Executable>
rbdock ($Id: //depot/dev/client3/rdock/2013.1/src/exe/rbdock.cxx#4 $)

>  <Rbt.Library>
libRbt.so (2013.1, Build901 2013/11/27)

>  <Rbt.Parameter_File>
dock.prm

>  <Rbt.Receptor>
rdock.prm

>  <SCORE>
-15.8715

>  <SCORE.INTER>
-7.38853

>  <SCORE.INTER.CONST>
1

>  <SCORE.INTER.POLAR>
-0.848528

>  <SCORE.INTER.REPUL>
0.116713

>  <SCORE.INTER.ROT>
10

>  <SCORE.INTER.VDW>
-20.4871

>  <SCORE.INTER.norm>
-0.184713

>  <SCORE.INTRA>
-8.48301

>  <SCORE.INTRA.DIHEDRAL>
2.85784

>  <SCORE.INTRA.DIHEDRAL.0>
8.51926

>  <SCORE.INTRA.POLAR>
-1.98416

>  <SCORE.INTRA.POLAR.0>
0

>  <SCORE.INTRA.REPUL>
0

>  <SCORE.INTRA.REPUL.0>
0

>  <SCORE.INTRA.VDW>
-3.1658

>  <SCORE.INTRA.VDW.0>
-1.46228

>  <SCORE.INTRA.norm>
-0.212075

>  <SCORE.RESTR>
0

>  <SCORE.RESTR.CAVITY>
0

>  <SCORE.RESTR.norm>
0

>  <SCORE.SYSTEM>
0

>  <SCORE.SYSTEM.CONST>
0

>  <SCORE.SYSTEM.DIHEDRAL>
0

>  <SCORE.SYSTEM.norm>
0

>  <SCORE.heavy>
40

>  <SCORE.norm>
-0.396789

$$$$
ligands/mol4.pdb
  rDOCK(R)          3D
libRbt.so/2013.1/901 2013/11/27
 46 49  0  0  0  0  0  0  0  0999 V2000
   -6.5041  -37.6949   -5.4302 N   0  0  0  0  0  0
   -5.9432  -37.1939   -3.9285 S   0  0  0  0  0  0
   -6.7969  -37.7965   -2.9498 O   0  0  0  0  0  0
   -4.5069  -37.4263   -3.9697 O   0  0  0  0  0  0
   -6.2531  -35.4518   -3.9629 C   0  0  0  0  0  0
   -7.5045  -34.9568   -3.5947 C   0  0  0  0  0  0
   -7.7415  -33.5825   -3.6419 C   0  0  0  0  0  0
   -6.7423  -32.6918   -4.0684 C   0  0  0  0  0  0
   -7.0096  -31.1997   -4.1120 C   0  0  0  0  0  0
   -8.4315  -30.8303   -4.4863 C   0  0  0  0  0  0
   -9.0872  -31.4733   -5.5434 C   0  0  0  0  0  0
  -10.3851  -31.1035   -5.9006 C   0  0  0  0  0  0
  -11.0505  -30.0870   -5.2104 C   0  0  0  0  0  0
  -10.4068  -29.4099   -4.1790 C   0  0  0  0  0  0
  -10.9549  -28.3039   -3.4946 N   0  0  0  0  0  0
  -12.2014  -27.7045   -3.6574 C   0  0  0  0  0  0
  -13.0619  -28.0241   -4.4654 O   0  0  0  0  0  0
  -12.3546  -26.6818   -2.7262 N   0  0  0  0  0  0
  -13.4409  -25.8541   -2.5177 C   0  0  0  0  0  0
  -13.4388  -24.8537   -1.6097 C   0  0  0  0  0  0
  -12.2448  -24.4787   -0.7473 C   0  0  0  0  0  0
  -12.4426  -24.6805    0.7587 C   0  0  0  0  0  0
  -12.9286  -26.0191    1.0532 N   0  0  0  0  0  0
  -12.2993  -27.1287    0.5467 C   0  0  0  0  0  0
  -11.3659  -27.0373   -0.2440 O   0  0  0  0  0  0
  -12.9185  -28.4671    0.9680 C   0  0  0  0  0  0
  -14.3960  -28.5288    0.5474 C   0  0  0  0  0  0
  -14.5787  -28.7571   -0.9575 C   0  0  0  0  0  0
  -13.7810  -29.9510   -1.4803 C   0  0  0  0  0  0
  -14.3872  -31.1681   -1.0423 O   0  0  0  0  0  0
  -12.3142  -29.9045   -1.0474 C   0  0  0  0  0  0
  -12.1505  -29.6950    0.4582 C   0  0  0  0  0  0
  -14.6870  -24.0050   -1.4258 C   0  0  0  0  0  0
  -15.9368  -24.7562   -1.8408 C   0  0  0  0  0  0
  -16.9575  -24.6853   -1.1627 O   0  0  0  0  0  0
  -15.8531  -25.4279   -3.0328 N   0  0  0  0  0  0
  -14.6936  -25.9209   -3.3405 C   0  0  0  0  0  0
   -9.1056  -29.8014   -3.8106 C   0  0  0  0  0  0
   -5.4864  -33.2060   -4.4284 C   0  0  0  0  0  0
   -5.2406  -34.5836   -4.3805 C   0  0  0  0  0  0
   -7.4123  -37.2674   -5.6104 H   0  0  0  0  0  0
   -6.5130  -38.7142   -5.4724 H   0  0  0  0  0  0
  -10.2844  -27.8062   -2.9298 H   0  0  0  0  0  0
  -11.6099  -26.6330   -2.0521 H   0  0  0  0  0  0
  -13.5940  -26.1481    1.8055 H   0  0  0  0  0  0
  -14.3803  -31.1754   -0.0711 H   0  0  0  0  0  0
  1  2  1  0  0  0
  1 41  1  0  0  0
  1 42  1  0  0  0
  2  3  2  0  0  0
  2  4  2  0  0  0
  2  5  1  0  0  0
  5  6  2  0  0  0
  5 40  1  0  0  0
  6  7  1  0  0  0
  7  8  2  0  0  0
  8  9  1  0  0  0
  8 39  1  0  0  0
  9 10  1  0  0  0
 10 11  2  0  0  0
 10 38  1  0  0  0
 11 12  1  0  0  0
 12 13  2  0  0  0
 13 14  1  0  0  0
 14 15  1  0  0  0
 14 38  2  0  0  0
 15 16  1  0  0  0
 15 43  1  0  0  0
 16 17  2  0  0  0
 16 18  1  0  0  0
 18 19  1  0  0  0
 18 44  1  0  0  0
 19 20  2  0  0  0
 19 37  1  0  0  0
 20 21  1  0  0  0
 20 33  1  0  0  0
 21 22  1  0  0  0
 22 23  1  0  0  0
 23 24  1  0  0  0
 23 45  1  0  0  0
 24 25  2  0  0  0
 24 26  1  0  0  0
 26 27  1  0  0  0
 26 32  1  0  0  0
 27 28  1  0  0  0
 28 29  1  0  0  0
 29 30  1  0  0  0
 29 31  1  0  0  0
 30 46  1  0  0  0
 31 32  1  0  0  0
 33 34  1  0  0  0
 34 35  2  0  0  0
 34 36  1  0  0  0
 36 37  2  0  0  0
 39 40  2  0  0  0
M  END
>  <AUTHOR>
    GENERATED BY OPEN BABEL 2.3.2

>  <CHROM.1>
68.69941732,85.45912219,-34.55330522,-44.32643984,2.12372605,-177.04444828
-115.63933397,51.19718531,50.92330204,57.85389202,-60.69807490,-10.80368743
-30.04650823,-2.60588208,0.34766649,-0.86516182,2.31610773

>  <COMPND>
    UNNAMED

>  <MASTER>
        0    0    0    0    0    0    0    0   73    0   73    0

>  <Name>
ligands/mol4.pdb

>  <RI>
3.1026e+07

>  <Rbt.Current_Directory>
/home/rodrigo/Desktop/Rodrigo/Proyectos/test_OCONDOR/OCONDOR

>  <Rbt.Executable>
rbdock ($Id: //depot/dev/client3/rdock/2013.1/src/exe/rbdock.cxx#4 $)

>  <Rbt.Library>
libRbt.so (2013.1, Build901 2013/11/27)

>  <Rbt.Parameter_File>
dock.prm

>  <Rbt.Receptor>
rdock.prm

>  <SCORE>
-10.6047

>  <SCORE.INTER>
-5.11676

>  <SCORE.INTER.CONST>
1

>  <SCORE.INTER.POLAR>
-1.5471

>  <SCORE.INTER.REPUL>
0.0128641

>  <SCORE.INTER.ROT>
10

>  <SCORE.INTER.VDW>
-15.3209

>  <SCORE.INTER.norm>
-0.127919

>  <SCORE.INTRA>
-5.4879

>  <SCORE.INTRA.DIHEDRAL>
-2.6617

>  <SCORE.INTRA.DIHEDRAL.0>
8.51926

>  <SCORE.INTRA.POLAR>
-0.0926643

>  <SCORE.INTRA.POLAR.0>
0

>  <SCORE.INTRA.REPUL>
0

>  <SCORE.INTRA.REPUL.0>
0

>  <SCORE.INTRA.VDW>
-3.84199

>  <SCORE.INTRA.VDW.0>
-1.46228

>  <SCORE.INTRA.norm>
-0.137197

>  <SCORE.RESTR>
0

>  <SCORE.RESTR.CAVITY>
0

>  <SCORE.RESTR.norm>
0

>  <SCORE.SYSTEM>
0

>  <SCORE.SYSTEM.CONST>
0

>  <SCORE.SYSTEM.DIHEDRAL>
0

>  <SCORE.SYSTEM.norm>
0

>  <SCORE.heavy>
40

>  <SCORE.norm>
-0.265116

$$$$
