ligands/mol8.pdb
  rDOCK(R)          3D
libRbt.so/2013.1/901 2013/11/27
 47 50  0  0  0  0  0  0  0  0999 V2000
  -12.9070  -33.1964   -6.2201 N   0  0  0  0  0  0
  -11.8524  -32.6032   -5.0522 S   0  0  0  0  0  0
  -11.2831  -33.7848   -4.4016 O   0  0  0  0  0  0
  -11.0476  -31.6203   -5.7093 O   0  0  0  0  0  0
  -12.9671  -31.8142   -3.9159 C   0  0  0  0  0  0
  -14.2435  -31.4391   -4.3242 C   0  0  0  0  0  0
  -15.0985  -30.8242   -3.3971 C   0  0  0  0  0  0
  -14.6711  -30.5637   -2.0848 C   0  0  0  0  0  0
  -15.5604  -29.8258   -1.1045 C   0  0  0  0  0  0
  -15.1121  -28.4673   -0.5943 C   0  0  0  0  0  0
  -15.5810  -27.9679    0.6259 C   0  0  0  0  0  0
  -14.9819  -26.8497    1.2037 C   0  0  0  0  0  0
  -13.8882  -26.2293    0.5884 C   0  0  0  0  0  0
  -13.4007  -26.6911   -0.6345 C   0  0  0  0  0  0
  -12.2337  -26.1742   -1.2679 N   0  0  0  0  0  0
  -11.5030  -26.7661   -2.2892 C   0  0  0  0  0  0
  -11.7186  -27.8832   -2.7605 O   0  0  0  0  0  0
  -10.4310  -25.8912   -2.9635 C   0  0  0  0  0  0
  -10.1398  -26.5032   -4.3717 C   0  0  0  0  0  0
   -9.4005  -28.1865   -4.4519 S   0  0  0  0  0  0
  -10.6578  -24.3794   -2.8675 C   0  0  0  0  0  0
   -9.9412  -23.6440   -1.9106 C   0  0  0  0  0  0
   -9.9113  -22.2997   -1.7950 N   0  0  0  0  0  0
  -10.6742  -21.6155   -2.6464 C   0  0  0  0  0  0
  -11.5262  -22.2266   -3.5422 C   0  0  0  0  0  0
  -11.5550  -23.6302   -3.6710 C   0  0  0  0  0  0
  -12.6243  -24.2007   -4.5995 C   0  0  0  0  0  0
  -13.7716  -24.9714   -3.9139 C   0  0  0  0  0  0
  -14.2619  -24.3664   -2.6844 N   0  0  0  0  0  0
  -14.5796  -23.0285   -2.6216 C   0  0  0  0  0  0
  -14.4503  -22.2799   -3.5862 O   0  0  0  0  0  0
  -15.0188  -22.5291   -1.2378 C   0  0  0  0  0  0
  -13.9523  -22.8707   -0.1782 C   0  0  0  0  0  0
  -12.7293  -21.9472   -0.2466 C   0  0  0  0  0  0
  -13.1046  -20.4652   -0.2633 C   0  0  0  0  0  0
  -13.6996  -20.0766    0.9742 O   0  0  0  0  0  0
  -14.1081  -20.1674   -1.3742 C   0  0  0  0  0  0
  -15.3589  -21.0326   -1.2150 C   0  0  0  0  0  0
  -14.0496  -27.7862   -1.2352 C   0  0  0  0  0  0
  -13.3638  -30.9279   -1.7162 C   0  0  0  0  0  0
  -12.5151  -31.5558   -2.6252 C   0  0  0  0  0  0
  -13.2754  -32.4382   -6.7864 H   0  0  0  0  0  0
  -13.6245  -33.7729   -5.7681 H   0  0  0  0  0  0
  -11.9487  -25.2470   -0.9698 H   0  0  0  0  0  0
  -10.3718  -28.8455   -3.8008 H   0  0  0  0  0  0
  -14.6007  -24.9818   -1.9585 H   0  0  0  0  0  0
  -14.4982  -20.6112    1.1197 H   0  0  0  0  0  0
  1  2  1  0  0  0
  1 42  1  0  0  0
  1 43  1  0  0  0
  2  3  2  0  0  0
  2  4  2  0  0  0
  2  5  1  0  0  0
  5  6  2  0  0  0
  5 41  1  0  0  0
  6  7  1  0  0  0
  7  8  2  0  0  0
  8  9  1  0  0  0
  8 40  1  0  0  0
  9 10  1  0  0  0
 10 11  2  0  0  0
 10 39  1  0  0  0
 11 12  1  0  0  0
 12 13  2  0  0  0
 13 14  1  0  0  0
 14 15  1  0  0  0
 14 39  2  0  0  0
 15 16  1  0  0  0
 15 44  1  0  0  0
 16 17  2  0  0  0
 16 18  1  0  0  0
 18 19  1  0  0  0
 18 21  1  0  0  0
 19 20  1  0  0  0
 20 45  1  0  0  0
 21 22  2  0  0  0
 21 26  1  0  0  0
 22 23  1  0  0  0
 23 24  2  0  0  0
 24 25  1  0  0  0
 25 26  2  0  0  0
 26 27  1  0  0  0
 27 28  1  0  0  0
 28 29  1  0  0  0
 29 30  1  0  0  0
 29 46  1  0  0  0
 30 31  2  0  0  0
 30 32  1  0  0  0
 32 33  1  0  0  0
 32 38  1  0  0  0
 33 34  1  0  0  0
 34 35  1  0  0  0
 35 36  1  0  0  0
 35 37  1  0  0  0
 36 47  1  0  0  0
 37 38  1  0  0  0
 40 41  2  0  0  0
M  END
>  <AUTHOR>
    GENERATED BY OPEN BABEL 2.3.2

>  <CHROM.1>
-174.14078191,-20.57481974,-115.37290104,-156.06839473,163.16993341,-158.39885162
-64.35722340,100.67409871,59.39678732,65.31443463,41.05376892,48.76436888
54.60764595,-59.54348359,-12.76887172,-26.57827117,-2.52434781,-1.47860872
0.66277424,0.22652654

>  <COMPND>
    UNNAMED

>  <MASTER>
        0    0    0    0    0    0    0    0   77    0   77    0

>  <Name>
ligands/mol8.pdb

>  <RI>
2.37556e+07

>  <Rbt.Current_Directory>
/home/rodrigo/Desktop/Rodrigo/Proyectos/test_OCONDOR/OCONDOR

>  <Rbt.Executable>
rbdock ($Id: //depot/dev/client3/rdock/2013.1/src/exe/rbdock.cxx#4 $)

>  <Rbt.Library>
libRbt.so (2013.1, Build901 2013/11/27)

>  <Rbt.Parameter_File>
dock.prm

>  <Rbt.Receptor>
rdock.prm

>  <SCORE>
-21.5004

>  <SCORE.INTER>
-14.641

>  <SCORE.INTER.CONST>
1

>  <SCORE.INTER.POLAR>
-2.24998

>  <SCORE.INTER.REPUL>
0

>  <SCORE.INTER.ROT>
13

>  <SCORE.INTER.VDW>
-25.3911

>  <SCORE.INTER.norm>
-0.357099

>  <SCORE.INTRA>
-6.85939

>  <SCORE.INTRA.DIHEDRAL>
-5.70164

>  <SCORE.INTRA.DIHEDRAL.0>
15.0264

>  <SCORE.INTRA.POLAR>
-0.419866

>  <SCORE.INTRA.POLAR.0>
0

>  <SCORE.INTRA.REPUL>
0

>  <SCORE.INTRA.REPUL.0>
0

>  <SCORE.INTRA.VDW>
-2.58102

>  <SCORE.INTRA.VDW.0>
-4.74907

>  <SCORE.INTRA.norm>
-0.167302

>  <SCORE.RESTR>
0

>  <SCORE.RESTR.CAVITY>
0

>  <SCORE.RESTR.norm>
0

>  <SCORE.SYSTEM>
0

>  <SCORE.SYSTEM.CONST>
0

>  <SCORE.SYSTEM.DIHEDRAL>
0

>  <SCORE.SYSTEM.norm>
0

>  <SCORE.heavy>
41

>  <SCORE.norm>
-0.524401

$$$$
ligands/mol8.pdb
  rDOCK(R)          3D
libRbt.so/2013.1/901 2013/11/27
 47 50  0  0  0  0  0  0  0  0999 V2000
   -4.0411  -31.9505    1.8172 N   0  0  0  0  0  0
   -4.0833  -31.3518    0.2463 S   0  0  0  0  0  0
   -4.4347  -29.9364    0.3755 O   0  0  0  0  0  0
   -2.8744  -31.7937   -0.3775 O   0  0  0  0  0  0
   -5.4732  -32.2188   -0.4412 C   0  0  0  0  0  0
   -6.3330  -32.9402    0.3815 C   0  0  0  0  0  0
   -7.4240  -33.6069   -0.1963 C   0  0  0  0  0  0
   -7.6359  -33.5739   -1.5844 C   0  0  0  0  0  0
   -8.7638  -34.3595   -2.2223 C   0  0  0  0  0  0
   -9.5265  -33.7325   -3.3764 C   0  0  0  0  0  0
   -9.4140  -34.2442   -4.6739 C   0  0  0  0  0  0
  -10.2968  -33.8313   -5.6706 C   0  0  0  0  0  0
  -11.3230  -32.9238   -5.3824 C   0  0  0  0  0  0
  -11.4591  -32.3828   -4.1036 C   0  0  0  0  0  0
  -12.5351  -31.5343   -3.7133 N   0  0  0  0  0  0
  -12.7064  -30.9095   -2.4853 C   0  0  0  0  0  0
  -11.9742  -31.0569   -1.5062 O   0  0  0  0  0  0
  -13.8224  -29.8529   -2.4015 C   0  0  0  0  0  0
  -15.1382  -30.5880   -1.9884 C   0  0  0  0  0  0
  -15.8180  -31.8607   -3.1306 S   0  0  0  0  0  0
  -13.4548  -28.5629   -1.6618 C   0  0  0  0  0  0
  -13.1772  -28.6230   -0.2874 C   0  0  0  0  0  0
  -12.6974  -27.6180    0.4750 N   0  0  0  0  0  0
  -12.5161  -26.4474   -0.1347 C   0  0  0  0  0  0
  -12.8789  -26.2250   -1.4465 C   0  0  0  0  0  0
  -13.3736  -27.2739   -2.2481 C   0  0  0  0  0  0
  -13.8617  -26.8855   -3.6417 C   0  0  0  0  0  0
  -13.8350  -25.3782   -3.9698 C   0  0  0  0  0  0
  -14.5665  -24.5382   -3.0331 N   0  0  0  0  0  0
  -14.3805  -23.1747   -2.9978 C   0  0  0  0  0  0
  -13.5822  -22.6044   -3.7361 O   0  0  0  0  0  0
  -15.1754  -22.4383   -1.9101 C   0  0  0  0  0  0
  -14.7459  -22.9194   -0.5098 C   0  0  0  0  0  0
  -13.3947  -22.3404   -0.0711 C   0  0  0  0  0  0
  -13.3187  -20.8221   -0.2327 C   0  0  0  0  0  0
  -14.2232  -20.1693    0.6575 O   0  0  0  0  0  0
  -13.6846  -20.4042   -1.6544 C   0  0  0  0  0  0
  -15.0802  -20.9105   -2.0214 C   0  0  0  0  0  0
  -10.5272  -32.7647   -3.1204 C   0  0  0  0  0  0
   -6.7289  -32.8611   -2.3886 C   0  0  0  0  0  0
   -5.6539  -32.1809   -1.8207 C   0  0  0  0  0  0
   -4.8447  -31.6242    2.3452 H   0  0  0  0  0  0
   -3.1360  -31.7237    2.2427 H   0  0  0  0  0  0
  -13.2139  -31.3270   -4.4386 H   0  0  0  0  0  0
  -14.8586  -32.7852   -2.9685 H   0  0  0  0  0  0
  -15.3847  -24.9295   -2.5884 H   0  0  0  0  0  0
  -15.1127  -20.5386    0.5272 H   0  0  0  0  0  0
  1  2  1  0  0  0
  1 42  1  0  0  0
  1 43  1  0  0  0
  2  3  2  0  0  0
  2  4  2  0  0  0
  2  5  1  0  0  0
  5  6  2  0  0  0
  5 41  1  0  0  0
  6  7  1  0  0  0
  7  8  2  0  0  0
  8  9  1  0  0  0
  8 40  1  0  0  0
  9 10  1  0  0  0
 10 11  2  0  0  0
 10 39  1  0  0  0
 11 12  1  0  0  0
 12 13  2  0  0  0
 13 14  1  0  0  0
 14 15  1  0  0  0
 14 39  2  0  0  0
 15 16  1  0  0  0
 15 44  1  0  0  0
 16 17  2  0  0  0
 16 18  1  0  0  0
 18 19  1  0  0  0
 18 21  1  0  0  0
 19 20  1  0  0  0
 20 45  1  0  0  0
 21 22  2  0  0  0
 21 26  1  0  0  0
 22 23  1  0  0  0
 23 24  2  0  0  0
 24 25  1  0  0  0
 25 26  2  0  0  0
 26 27  1  0  0  0
 27 28  1  0  0  0
 28 29  1  0  0  0
 29 30  1  0  0  0
 29 46  1  0  0  0
 30 31  2  0  0  0
 30 32  1  0  0  0
 32 33  1  0  0  0
 32 38  1  0  0  0
 33 34  1  0  0  0
 34 35  1  0  0  0
 35 36  1  0  0  0
 35 37  1  0  0  0
 36 47  1  0  0  0
 37 38  1  0  0  0
 40 41  2  0  0  0
M  END
>  <AUTHOR>
    GENERATED BY OPEN BABEL 2.3.2

>  <CHROM.1>
44.74944298,11.28438993,141.58498436,111.32760177,-176.74877480,89.40446916
-62.86276153,-65.46294573,69.15271344,171.86499151,-55.49173271,164.34482900
62.18954999,-53.67058388,-11.03643103,-28.85158600,-1.78788649,-0.82664555
-0.38806495,0.30023308

>  <COMPND>
    UNNAMED

>  <MASTER>
        0    0    0    0    0    0    0    0   77    0   77    0

>  <Name>
ligands/mol8.pdb

>  <RI>
2.37556e+07

>  <Rbt.Current_Directory>
/home/rodrigo/Desktop/Rodrigo/Proyectos/test_OCONDOR/OCONDOR

>  <Rbt.Executable>
rbdock ($Id: //depot/dev/client3/rdock/2013.1/src/exe/rbdock.cxx#4 $)

>  <Rbt.Library>
libRbt.so (2013.1, Build901 2013/11/27)

>  <Rbt.Parameter_File>
dock.prm

>  <Rbt.Receptor>
rdock.prm

>  <SCORE>
-12.5432

>  <SCORE.INTER>
-10.8225

>  <SCORE.INTER.CONST>
1

>  <SCORE.INTER.POLAR>
-0.673877

>  <SCORE.INTER.REPUL>
0

>  <SCORE.INTER.ROT>
13

>  <SCORE.INTER.VDW>
-26.9313

>  <SCORE.INTER.norm>
-0.263964

>  <SCORE.INTRA>
-1.72072

>  <SCORE.INTRA.DIHEDRAL>
-6.97486

>  <SCORE.INTRA.DIHEDRAL.0>
15.0264

>  <SCORE.INTRA.POLAR>
0

>  <SCORE.INTRA.POLAR.0>
0

>  <SCORE.INTRA.REPUL>
0

>  <SCORE.INTRA.REPUL.0>
0

>  <SCORE.INTRA.VDW>
1.76671

>  <SCORE.INTRA.VDW.0>
-4.74907

>  <SCORE.INTRA.norm>
-0.0419687

>  <SCORE.RESTR>
0

>  <SCORE.RESTR.CAVITY>
0

>  <SCORE.RESTR.norm>
0

>  <SCORE.SYSTEM>
0

>  <SCORE.SYSTEM.CONST>
0

>  <SCORE.SYSTEM.DIHEDRAL>
0

>  <SCORE.SYSTEM.norm>
0

>  <SCORE.heavy>
41

>  <SCORE.norm>
-0.305932

$$$$
ligands/mol8.pdb
  rDOCK(R)          3D
libRbt.so/2013.1/901 2013/11/27
 47 50  0  0  0  0  0  0  0  0999 V2000
  -12.6798  -24.3132   -6.0520 N   0  0  0  0  0  0
  -12.6515  -25.9009   -5.4983 S   0  0  0  0  0  0
  -13.9601  -26.4597   -5.8430 O   0  0  0  0  0  0
  -11.4234  -26.4620   -5.9702 O   0  0  0  0  0  0
  -12.5790  -25.6758   -3.7375 C   0  0  0  0  0  0
  -11.6017  -24.8646   -3.1688 C   0  0  0  0  0  0
  -11.5796  -24.7052   -1.7750 C   0  0  0  0  0  0
  -12.5081  -25.3716   -0.9585 C   0  0  0  0  0  0
  -12.4371  -25.2687    0.5516 C   0  0  0  0  0  0
  -11.6713  -26.3324    1.3190 C   0  0  0  0  0  0
  -11.4064  -26.1820    2.6848 C   0  0  0  0  0  0
  -10.9311  -27.2593    3.4308 C   0  0  0  0  0  0
  -10.7395  -28.5107    2.8332 C   0  0  0  0  0  0
  -10.9811  -28.6958    1.4716 C   0  0  0  0  0  0
  -10.9043  -29.9599    0.8185 N   0  0  0  0  0  0
  -11.5219  -30.3282   -0.3691 C   0  0  0  0  0  0
  -12.3023  -29.6243   -1.0109 O   0  0  0  0  0  0
  -11.0822  -31.6682   -0.9857 C   0  0  0  0  0  0
  -11.0736  -32.7335    0.1577 C   0  0  0  0  0  0
  -12.5417  -32.8345    1.2626 S   0  0  0  0  0  0
  -11.7573  -32.0377   -2.3100 C   0  0  0  0  0  0
  -13.0790  -31.6241   -2.5378 C   0  0  0  0  0  0
  -13.7620  -31.7350   -3.6965 N   0  0  0  0  0  0
  -13.1281  -32.3375   -4.7016 C   0  0  0  0  0  0
  -11.8798  -32.9069   -4.5624 C   0  0  0  0  0  0
  -11.1603  -32.7869   -3.3560 C   0  0  0  0  0  0
   -9.8481  -33.5630   -3.2730 C   0  0  0  0  0  0
   -8.7724  -33.1820   -4.3113 C   0  0  0  0  0  0
   -7.9867  -34.3000   -4.8122 N   0  0  0  0  0  0
   -6.7260  -34.1133   -5.3324 C   0  0  0  0  0  0
   -6.2111  -33.0017   -5.4158 O   0  0  0  0  0  0
   -6.0544  -35.3809   -5.8795 C   0  0  0  0  0  0
   -4.8302  -35.0130   -6.7413 C   0  0  0  0  0  0
   -3.6155  -34.5974   -5.9016 C   0  0  0  0  0  0
   -3.2892  -35.5986   -4.7933 C   0  0  0  0  0  0
   -2.8573  -36.8431   -5.3422 O   0  0  0  0  0  0
   -4.5152  -35.8744   -3.9269 C   0  0  0  0  0  0
   -5.6748  -36.3854   -4.7829 C   0  0  0  0  0  0
  -11.4070  -27.5863    0.7177 C   0  0  0  0  0  0
  -13.4618  -26.2082   -1.5653 C   0  0  0  0  0  0
  -13.5023  -26.3570   -2.9499 C   0  0  0  0  0  0
  -13.3763  -23.7721   -5.5487 H   0  0  0  0  0  0
  -12.7986  -24.3111   -7.0705 H   0  0  0  0  0  0
  -10.2830  -30.6374    1.2486 H   0  0  0  0  0  0
  -11.8948  -32.7575    2.4361 H   0  0  0  0  0  0
   -8.2705  -35.2323   -4.5467 H   0  0  0  0  0  0
   -2.6178  -37.4407   -4.6140 H   0  0  0  0  0  0
  1  2  1  0  0  0
  1 42  1  0  0  0
  1 43  1  0  0  0
  2  3  2  0  0  0
  2  4  2  0  0  0
  2  5  1  0  0  0
  5  6  2  0  0  0
  5 41  1  0  0  0
  6  7  1  0  0  0
  7  8  2  0  0  0
  8  9  1  0  0  0
  8 40  1  0  0  0
  9 10  1  0  0  0
 10 11  2  0  0  0
 10 39  1  0  0  0
 11 12  1  0  0  0
 12 13  2  0  0  0
 13 14  1  0  0  0
 14 15  1  0  0  0
 14 39  2  0  0  0
 15 16  1  0  0  0
 15 44  1  0  0  0
 16 17  2  0  0  0
 16 18  1  0  0  0
 18 19  1  0  0  0
 18 21  1  0  0  0
 19 20  1  0  0  0
 20 45  1  0  0  0
 21 22  2  0  0  0
 21 26  1  0  0  0
 22 23  1  0  0  0
 23 24  2  0  0  0
 24 25  1  0  0  0
 25 26  2  0  0  0
 26 27  1  0  0  0
 27 28  1  0  0  0
 28 29  1  0  0  0
 29 30  1  0  0  0
 29 46  1  0  0  0
 30 31  2  0  0  0
 30 32  1  0  0  0
 32 33  1  0  0  0
 32 38  1  0  0  0
 33 34  1  0  0  0
 34 35  1  0  0  0
 35 36  1  0  0  0
 35 37  1  0  0  0
 36 47  1  0  0  0
 37 38  1  0  0  0
 40 41  2  0  0  0
M  END
>  <AUTHOR>
    GENERATED BY OPEN BABEL 2.3.2

>  <CHROM.1>
64.59087873,-52.83348967,-93.43796000,170.47108085,157.32310209,46.94925809
47.90731491,-32.09131697,-128.07205123,-123.55984314,-143.05497020,-156.01614655
165.80258849,177.30571300,-10.32971560,-30.35008066,-2.65084619,-3.12940320
-0.94191633,1.96690327

>  <COMPND>
    UNNAMED

>  <MASTER>
        0    0    0    0    0    0    0    0   77    0   77    0

>  <Name>
ligands/mol8.pdb

>  <RI>
2.37556e+07

>  <Rbt.Current_Directory>
/home/rodrigo/Desktop/Rodrigo/Proyectos/test_OCONDOR/OCONDOR

>  <Rbt.Executable>
rbdock ($Id: //depot/dev/client3/rdock/2013.1/src/exe/rbdock.cxx#4 $)

>  <Rbt.Library>
libRbt.so (2013.1, Build901 2013/11/27)

>  <Rbt.Parameter_File>
dock.prm

>  <Rbt.Receptor>
rdock.prm

>  <SCORE>
-6.95744

>  <SCORE.INTER>
-9.9293

>  <SCORE.INTER.CONST>
1

>  <SCORE.INTER.POLAR>
-1.58675

>  <SCORE.INTER.REPUL>
0

>  <SCORE.INTER.ROT>
13

>  <SCORE.INTER.VDW>
-22.9344

>  <SCORE.INTER.norm>
-0.242178

>  <SCORE.INTRA>
2.97186

>  <SCORE.INTRA.DIHEDRAL>
1.54753

>  <SCORE.INTRA.DIHEDRAL.0>
15.0264

>  <SCORE.INTRA.POLAR>
0

>  <SCORE.INTRA.POLAR.0>
0

>  <SCORE.INTRA.REPUL>
0

>  <SCORE.INTRA.REPUL.0>
0

>  <SCORE.INTRA.VDW>
2.1981

>  <SCORE.INTRA.VDW.0>
-4.74907

>  <SCORE.INTRA.norm>
0.0724845

>  <SCORE.RESTR>
0

>  <SCORE.RESTR.CAVITY>
0

>  <SCORE.RESTR.norm>
0

>  <SCORE.SYSTEM>
0

>  <SCORE.SYSTEM.CONST>
0

>  <SCORE.SYSTEM.DIHEDRAL>
0

>  <SCORE.SYSTEM.norm>
0

>  <SCORE.heavy>
41

>  <SCORE.norm>
-0.169694

$$$$
ligands/mol8.pdb
  rDOCK(R)          3D
libRbt.so/2013.1/901 2013/11/27
 47 50  0  0  0  0  0  0  0  0999 V2000
  -10.8323  -31.8933   -8.9000 N   0  0  0  0  0  0
  -11.1658  -33.3316   -8.0949 S   0  0  0  0  0  0
  -12.5916  -33.5819   -8.3137 O   0  0  0  0  0  0
  -10.1491  -34.2540   -8.4965 O   0  0  0  0  0  0
  -10.9275  -32.8671   -6.3967 C   0  0  0  0  0  0
  -11.8673  -32.0766   -5.7422 C   0  0  0  0  0  0
  -11.6486  -31.7352   -4.3989 C   0  0  0  0  0  0
  -10.4897  -32.1578   -3.7273 C   0  0  0  0  0  0
  -10.2087  -31.7233   -2.3031 C   0  0  0  0  0  0
  -11.2759  -31.9537   -1.2473 C   0  0  0  0  0  0
  -11.3057  -33.1381   -0.5026 C   0  0  0  0  0  0
  -12.1210  -33.2393    0.6235 C   0  0  0  0  0  0
  -12.8977  -32.1519    1.0411 C   0  0  0  0  0  0
  -12.9035  -30.9592    0.3172 C   0  0  0  0  0  0
  -13.5886  -29.7822    0.7360 N   0  0  0  0  0  0
  -13.1251  -28.4752    0.6714 C   0  0  0  0  0  0
  -11.9999  -28.1390    0.3005 O   0  0  0  0  0  0
  -14.1528  -27.3663    0.9602 C   0  0  0  0  0  0
  -13.5058  -26.3783    1.9837 C   0  0  0  0  0  0
  -13.1721  -26.9873    3.6879 S   0  0  0  0  0  0
  -14.8492  -26.7762   -0.2698 C   0  0  0  0  0  0
  -16.2039  -27.0695   -0.4900 C   0  0  0  0  0  0
  -16.9978  -26.5171   -1.4312 N   0  0  0  0  0  0
  -16.4196  -25.6442   -2.2550 C   0  0  0  0  0  0
  -15.0675  -25.3743   -2.2270 C   0  0  0  0  0  0
  -14.2362  -25.9438   -1.2410 C   0  0  0  0  0  0
  -12.7398  -25.6768   -1.3837 C   0  0  0  0  0  0
  -12.2506  -25.3202   -2.8028 C   0  0  0  0  0  0
  -12.7583  -24.0593   -3.3229 N   0  0  0  0  0  0
  -12.2802  -22.8519   -2.8663 C   0  0  0  0  0  0
  -11.4211  -22.7771   -1.9922 O   0  0  0  0  0  0
  -12.9636  -21.6142   -3.4648 C   0  0  0  0  0  0
  -14.4912  -21.6971   -3.2742 C   0  0  0  0  0  0
  -14.9289  -21.3821   -1.8380 C   0  0  0  0  0  0
  -14.3282  -20.0808   -1.3061 C   0  0  0  0  0  0
  -14.8348  -18.9556   -2.0230 O   0  0  0  0  0  0
  -12.8091  -20.0790   -1.4536 C   0  0  0  0  0  0
  -12.4103  -20.2926   -2.9144 C   0  0  0  0  0  0
  -12.1192  -30.8887   -0.8493 C   0  0  0  0  0  0
   -9.5464  -32.9290   -4.4295 C   0  0  0  0  0  0
   -9.7650  -33.2880   -5.7577 C   0  0  0  0  0  0
  -11.1194  -31.9537   -9.8721 H   0  0  0  0  0  0
   -9.8452  -31.6502   -8.7656 H   0  0  0  0  0  0
  -14.5391  -29.9223    1.0629 H   0  0  0  0  0  0
  -14.4335  -27.3028    4.0211 H   0  0  0  0  0  0
  -13.2771  -24.0812   -4.1893 H   0  0  0  0  0  0
  -14.4138  -18.1496   -1.6798 H   0  0  0  0  0  0
  1  2  1  0  0  0
  1 42  1  0  0  0
  1 43  1  0  0  0
  2  3  2  0  0  0
  2  4  2  0  0  0
  2  5  1  0  0  0
  5  6  2  0  0  0
  5 41  1  0  0  0
  6  7  1  0  0  0
  7  8  2  0  0  0
  8  9  1  0  0  0
  8 40  1  0  0  0
  9 10  1  0  0  0
 10 11  2  0  0  0
 10 39  1  0  0  0
 11 12  1  0  0  0
 12 13  2  0  0  0
 13 14  1  0  0  0
 14 15  1  0  0  0
 14 39  2  0  0  0
 15 16  1  0  0  0
 15 44  1  0  0  0
 16 17  2  0  0  0
 16 18  1  0  0  0
 18 19  1  0  0  0
 18 21  1  0  0  0
 19 20  1  0  0  0
 20 45  1  0  0  0
 21 22  2  0  0  0
 21 26  1  0  0  0
 22 23  1  0  0  0
 23 24  2  0  0  0
 24 25  1  0  0  0
 25 26  2  0  0  0
 26 27  1  0  0  0
 27 28  1  0  0  0
 28 29  1  0  0  0
 29 30  1  0  0  0
 29 46  1  0  0  0
 30 31  2  0  0  0
 30 32  1  0  0  0
 32 33  1  0  0  0
 32 38  1  0  0  0
 33 34  1  0  0  0
 34 35  1  0  0  0
 35 36  1  0  0  0
 35 37  1  0  0  0
 36 47  1  0  0  0
 37 38  1  0  0  0
 40 41  2  0  0  0
M  END
>  <AUTHOR>
    GENERATED BY OPEN BABEL 2.3.2

>  <CHROM.1>
-54.58684212,74.02323348,53.29014689,90.56034448,137.94701448,131.76330286
-67.00029546,108.91843407,-59.74276894,152.57609758,65.41534532,74.29844962
54.06178888,-178.27044779,-12.72491670,-27.90802000,-2.37714246,-0.34676653
1.30923540,-0.81420442

>  <COMPND>
    UNNAMED

>  <MASTER>
        0    0    0    0    0    0    0    0   77    0   77    0

>  <Name>
ligands/mol8.pdb

>  <RI>
2.37556e+07

>  <Rbt.Current_Directory>
/home/rodrigo/Desktop/Rodrigo/Proyectos/test_OCONDOR/OCONDOR

>  <Rbt.Executable>
rbdock ($Id: //depot/dev/client3/rdock/2013.1/src/exe/rbdock.cxx#4 $)

>  <Rbt.Library>
libRbt.so (2013.1, Build901 2013/11/27)

>  <Rbt.Parameter_File>
dock.prm

>  <Rbt.Receptor>
rdock.prm

>  <SCORE>
-9.17744

>  <SCORE.INTER>
-9.30435

>  <SCORE.INTER.CONST>
1

>  <SCORE.INTER.POLAR>
-0.604143

>  <SCORE.INTER.REPUL>
0.29257

>  <SCORE.INTER.ROT>
13

>  <SCORE.INTER.VDW>
-27.1131

>  <SCORE.INTER.norm>
-0.226935

>  <SCORE.INTRA>
0.126912

>  <SCORE.INTRA.DIHEDRAL>
-0.291915

>  <SCORE.INTRA.DIHEDRAL.0>
15.0264

>  <SCORE.INTRA.POLAR>
0

>  <SCORE.INTRA.POLAR.0>
0

>  <SCORE.INTRA.REPUL>
0

>  <SCORE.INTRA.REPUL.0>
0

>  <SCORE.INTRA.VDW>
0.27287

>  <SCORE.INTRA.VDW.0>
-4.74907

>  <SCORE.INTRA.norm>
0.00309543

>  <SCORE.RESTR>
0

>  <SCORE.RESTR.CAVITY>
0

>  <SCORE.RESTR.norm>
0

>  <SCORE.SYSTEM>
0

>  <SCORE.SYSTEM.CONST>
0

>  <SCORE.SYSTEM.DIHEDRAL>
0

>  <SCORE.SYSTEM.norm>
0

>  <SCORE.heavy>
41

>  <SCORE.norm>
-0.22384

$$$$
ligands/mol8.pdb
  rDOCK(R)          3D
libRbt.so/2013.1/901 2013/11/27
 47 50  0  0  0  0  0  0  0  0999 V2000
   -9.4211  -31.4837   -0.6481 N   0  0  0  0  0  0
  -10.6484  -32.6250   -0.7872 S   0  0  0  0  0  0
  -10.4551  -33.2510   -2.0964 O   0  0  0  0  0  0
  -10.6361  -33.3691    0.4342 O   0  0  0  0  0  0
  -12.0980  -31.6003   -0.8591 C   0  0  0  0  0  0
  -12.8947  -31.5828   -2.0000 C   0  0  0  0  0  0
  -14.0355  -30.7662   -2.0179 C   0  0  0  0  0  0
  -14.3596  -29.9564   -0.9170 C   0  0  0  0  0  0
  -15.5431  -29.0113   -0.9628 C   0  0  0  0  0  0
  -15.5185  -27.8606   -1.9539 C   0  0  0  0  0  0
  -16.2836  -26.7092   -1.7368 C   0  0  0  0  0  0
  -16.0685  -25.5676   -2.5073 C   0  0  0  0  0  0
  -15.0684  -25.5468   -3.4867 C   0  0  0  0  0  0
  -14.2940  -26.6793   -3.7401 C   0  0  0  0  0  0
  -13.1962  -26.7008   -4.6482 N   0  0  0  0  0  0
  -12.8162  -25.6957   -5.5272 C   0  0  0  0  0  0
  -13.4277  -24.6420   -5.7072 O   0  0  0  0  0  0
  -11.4534  -25.8686   -6.2214 C   0  0  0  0  0  0
  -10.8758  -24.4414   -6.4893 C   0  0  0  0  0  0
   -9.1294  -24.3022   -7.0525 S   0  0  0  0  0  0
  -10.5253  -26.9169   -5.6001 C   0  0  0  0  0  0
  -10.3149  -28.1267   -6.2798 C   0  0  0  0  0  0
   -9.4220  -29.0833   -5.9495 N   0  0  0  0  0  0
   -8.7084  -28.8705   -4.8447 C   0  0  0  0  0  0
   -8.9178  -27.7868   -4.0180 C   0  0  0  0  0  0
   -9.8444  -26.7818   -4.3632 C   0  0  0  0  0  0
  -10.0858  -25.6980   -3.3153 C   0  0  0  0  0  0
  -11.3639  -25.8545   -2.4653 C   0  0  0  0  0  0
  -11.7195  -24.6825   -1.6793 N   0  0  0  0  0  0
  -12.4054  -23.6272   -2.2370 C   0  0  0  0  0  0
  -12.7341  -23.6132   -3.4200 O   0  0  0  0  0  0
  -12.6464  -22.4386   -1.2956 C   0  0  0  0  0  0
  -13.2376  -21.2462   -2.0738 C   0  0  0  0  0  0
  -14.7245  -21.4302   -2.4034 C   0  0  0  0  0  0
  -15.5588  -21.8231   -1.1840 C   0  0  0  0  0  0
  -15.5965  -20.7627   -0.2296 O   0  0  0  0  0  0
  -14.9713  -23.0498   -0.4914 C   0  0  0  0  0  0
  -13.5196  -22.7938   -0.0845 C   0  0  0  0  0  0
  -14.5586  -27.8430   -2.9940 C   0  0  0  0  0  0
  -13.5144  -29.9757    0.2067 C   0  0  0  0  0  0
  -12.3902  -30.7979    0.2398 C   0  0  0  0  0  0
   -9.3402  -31.1618    0.3116 H   0  0  0  0  0  0
   -9.5740  -30.7358   -1.3328 H   0  0  0  0  0  0
  -12.6024  -27.5222   -4.5971 H   0  0  0  0  0  0
   -9.2849  -24.8440   -8.2707 H   0  0  0  0  0  0
  -11.6798  -24.7597   -0.6729 H   0  0  0  0  0  0
  -15.9961  -21.0944    0.5919 H   0  0  0  0  0  0
  1  2  1  0  0  0
  1 42  1  0  0  0
  1 43  1  0  0  0
  2  3  2  0  0  0
  2  4  2  0  0  0
  2  5  1  0  0  0
  5  6  2  0  0  0
  5 41  1  0  0  0
  6  7  1  0  0  0
  7  8  2  0  0  0
  8  9  1  0  0  0
  8 40  1  0  0  0
  9 10  1  0  0  0
 10 11  2  0  0  0
 10 39  1  0  0  0
 11 12  1  0  0  0
 12 13  2  0  0  0
 13 14  1  0  0  0
 14 15  1  0  0  0
 14 39  2  0  0  0
 15 16  1  0  0  0
 15 44  1  0  0  0
 16 17  2  0  0  0
 16 18  1  0  0  0
 18 19  1  0  0  0
 18 21  1  0  0  0
 19 20  1  0  0  0
 20 45  1  0  0  0
 21 22  2  0  0  0
 21 26  1  0  0  0
 22 23  1  0  0  0
 23 24  2  0  0  0
 24 25  1  0  0  0
 25 26  2  0  0  0
 26 27  1  0  0  0
 27 28  1  0  0  0
 28 29  1  0  0  0
 29 30  1  0  0  0
 29 46  1  0  0  0
 30 31  2  0  0  0
 30 32  1  0  0  0
 32 33  1  0  0  0
 32 38  1  0  0  0
 33 34  1  0  0  0
 34 35  1  0  0  0
 35 36  1  0  0  0
 35 37  1  0  0  0
 36 47  1  0  0  0
 37 38  1  0  0  0
 40 41  2  0  0  0
M  END
>  <AUTHOR>
    GENERATED BY OPEN BABEL 2.3.2

>  <CHROM.1>
-166.21992676,116.17625906,-64.29496177,-156.26502471,-8.24689870,-149.64205558
169.86455015,107.66097808,68.45171385,75.24373217,-167.69843726,82.15629782
171.94798537,-170.13513492,-12.37209016,-26.92282250,-2.81258599,-1.20842407
0.77104371,-0.41501474

>  <COMPND>
    UNNAMED

>  <MASTER>
        0    0    0    0    0    0    0    0   77    0   77    0

>  <Name>
ligands/mol8.pdb

>  <RI>
2.37556e+07

>  <Rbt.Current_Directory>
/home/rodrigo/Desktop/Rodrigo/Proyectos/test_OCONDOR/OCONDOR

>  <Rbt.Executable>
rbdock ($Id: //depot/dev/client3/rdock/2013.1/src/exe/rbdock.cxx#4 $)

>  <Rbt.Library>
libRbt.so (2013.1, Build901 2013/11/27)

>  <Rbt.Parameter_File>
dock.prm

>  <Rbt.Receptor>
rdock.prm

>  <SCORE>
-13.5993

>  <SCORE.INTER>
-8.99513

>  <SCORE.INTER.CONST>
1

>  <SCORE.INTER.POLAR>
-1.73552

>  <SCORE.INTER.REPUL>
0.0398487

>  <SCORE.INTER.ROT>
13

>  <SCORE.INTER.VDW>
-21.6936

>  <SCORE.INTER.norm>
-0.219393

>  <SCORE.INTRA>
-4.60415

>  <SCORE.INTRA.DIHEDRAL>
-4.87393

>  <SCORE.INTRA.DIHEDRAL.0>
15.0264

>  <SCORE.INTRA.POLAR>
0

>  <SCORE.INTRA.POLAR.0>
0

>  <SCORE.INTRA.REPUL>
0

>  <SCORE.INTRA.REPUL.0>
0

>  <SCORE.INTRA.VDW>
-2.16718

>  <SCORE.INTRA.VDW.0>
-4.74907

>  <SCORE.INTRA.norm>
-0.112296

>  <SCORE.RESTR>
0

>  <SCORE.RESTR.CAVITY>
0

>  <SCORE.RESTR.norm>
0

>  <SCORE.SYSTEM>
0

>  <SCORE.SYSTEM.CONST>
0

>  <SCORE.SYSTEM.DIHEDRAL>
0

>  <SCORE.SYSTEM.norm>
0

>  <SCORE.heavy>
41

>  <SCORE.norm>
-0.33169

$$$$
ligands/mol8.pdb
  rDOCK(R)          3D
libRbt.so/2013.1/901 2013/11/27
 47 50  0  0  0  0  0  0  0  0999 V2000
   -2.8326  -33.4448   -0.8212 N   0  0  0  0  0  0
   -3.4941  -34.9895   -0.8871 S   0  0  0  0  0  0
   -2.7331  -35.6982   -1.9177 O   0  0  0  0  0  0
   -3.5706  -35.4445    0.4667 O   0  0  0  0  0  0
   -5.1255  -34.6654   -1.5115 C   0  0  0  0  0  0
   -5.5190  -35.1618   -2.7506 C   0  0  0  0  0  0
   -6.8175  -34.8910   -3.2082 C   0  0  0  0  0  0
   -7.7019  -34.1099   -2.4464 C   0  0  0  0  0  0
   -9.0754  -33.7455   -2.9727 C   0  0  0  0  0  0
  -10.1212  -33.2428   -1.9926 C   0  0  0  0  0  0
  -10.6554  -34.0899   -1.0152 C   0  0  0  0  0  0
  -11.4173  -33.5658    0.0279 C   0  0  0  0  0  0
  -11.6346  -32.1865    0.1286 C   0  0  0  0  0  0
  -11.1284  -31.3121   -0.8336 C   0  0  0  0  0  0
  -11.2241  -29.8934   -0.7428 N   0  0  0  0  0  0
  -11.9941  -29.1611    0.1507 C   0  0  0  0  0  0
  -12.7806  -29.6405    0.9681 O   0  0  0  0  0  0
  -11.7323  -27.6452    0.2020 C   0  0  0  0  0  0
  -12.5954  -26.9791   -0.9176 C   0  0  0  0  0  0
  -12.3136  -27.5024   -2.6593 S   0  0  0  0  0  0
  -11.7568  -27.0189    1.5996 C   0  0  0  0  0  0
  -10.5433  -26.8149    2.2746 C   0  0  0  0  0  0
  -10.3775  -26.1459    3.4349 N   0  0  0  0  0  0
  -11.4836  -25.6770    4.0107 C   0  0  0  0  0  0
  -12.7464  -25.9287    3.5169 C   0  0  0  0  0  0
  -12.9233  -26.6208    2.3015 C   0  0  0  0  0  0
  -14.3633  -26.9530    1.9177 C   0  0  0  0  0  0
  -15.2032  -25.7801    1.3707 C   0  0  0  0  0  0
  -14.4966  -24.9032    0.4489 N   0  0  0  0  0  0
  -15.1239  -23.8293   -0.1412 C   0  0  0  0  0  0
  -16.3060  -23.5688    0.0645 O   0  0  0  0  0  0
  -14.2631  -23.0418   -1.1392 C   0  0  0  0  0  0
  -15.1400  -22.0798   -1.9653 C   0  0  0  0  0  0
  -15.5623  -20.8342   -1.1757 C   0  0  0  0  0  0
  -14.3854  -20.1364   -0.4936 C   0  0  0  0  0  0
  -13.4910  -19.5850   -1.4594 O   0  0  0  0  0  0
  -13.5923  -21.1163    0.3668 C   0  0  0  0  0  0
  -13.0990  -22.2938   -0.4751 C   0  0  0  0  0  0
  -10.4084  -31.8591   -1.9121 C   0  0  0  0  0  0
   -7.2595  -33.5984   -1.2134 C   0  0  0  0  0  0
   -5.9783  -33.8783   -0.7433 C   0  0  0  0  0  0
   -3.4332  -32.8217   -0.2898 H   0  0  0  0  0  0
   -2.6267  -33.1228   -1.7727 H   0  0  0  0  0  0
  -10.6160  -29.3732   -1.3668 H   0  0  0  0  0  0
  -12.8012  -28.7489   -2.5583 H   0  0  0  0  0  0
  -13.4872  -24.9414    0.4416 H   0  0  0  0  0  0
  -13.9721  -18.9326   -1.9958 H   0  0  0  0  0  0
  1  2  1  0  0  0
  1 42  1  0  0  0
  1 43  1  0  0  0
  2  3  2  0  0  0
  2  4  2  0  0  0
  2  5  1  0  0  0
  5  6  2  0  0  0
  5 41  1  0  0  0
  6  7  1  0  0  0
  7  8  2  0  0  0
  8  9  1  0  0  0
  8 40  1  0  0  0
  9 10  1  0  0  0
 10 11  2  0  0  0
 10 39  1  0  0  0
 11 12  1  0  0  0
 12 13  2  0  0  0
 13 14  1  0  0  0
 14 15  1  0  0  0
 14 39  2  0  0  0
 15 16  1  0  0  0
 15 44  1  0  0  0
 16 17  2  0  0  0
 16 18  1  0  0  0
 18 19  1  0  0  0
 18 21  1  0  0  0
 19 20  1  0  0  0
 20 45  1  0  0  0
 21 22  2  0  0  0
 21 26  1  0  0  0
 22 23  1  0  0  0
 23 24  2  0  0  0
 24 25  1  0  0  0
 25 26  2  0  0  0
 26 27  1  0  0  0
 27 28  1  0  0  0
 28 29  1  0  0  0
 29 30  1  0  0  0
 29 46  1  0  0  0
 30 31  2  0  0  0
 30 32  1  0  0  0
 32 33  1  0  0  0
 32 38  1  0  0  0
 33 34  1  0  0  0
 34 35  1  0  0  0
 35 36  1  0  0  0
 35 37  1  0  0  0
 36 47  1  0  0  0
 37 38  1  0  0  0
 40 41  2  0  0  0
M  END
>  <AUTHOR>
    GENERATED BY OPEN BABEL 2.3.2

>  <CHROM.1>
166.92393541,115.92861966,163.35623405,-67.49393543,-11.41027091,85.64386329
-59.36769776,97.11076596,68.92801581,-108.26964059,41.41489073,178.69426779
167.19329106,60.45988521,-10.61141099,-28.83980719,-0.39801283,-0.91096386
-0.20929394,0.28054600

>  <COMPND>
    UNNAMED

>  <MASTER>
        0    0    0    0    0    0    0    0   77    0   77    0

>  <Name>
ligands/mol8.pdb

>  <RI>
2.37556e+07

>  <Rbt.Current_Directory>
/home/rodrigo/Desktop/Rodrigo/Proyectos/test_OCONDOR/OCONDOR

>  <Rbt.Executable>
rbdock ($Id: //depot/dev/client3/rdock/2013.1/src/exe/rbdock.cxx#4 $)

>  <Rbt.Library>
libRbt.so (2013.1, Build901 2013/11/27)

>  <Rbt.Parameter_File>
dock.prm

>  <Rbt.Receptor>
rdock.prm

>  <SCORE>
-10.8219

>  <SCORE.INTER>
-6.77755

>  <SCORE.INTER.CONST>
1

>  <SCORE.INTER.POLAR>
-0.335351

>  <SCORE.INTER.REPUL>
0.34773

>  <SCORE.INTER.ROT>
13

>  <SCORE.INTER.VDW>
-25.776

>  <SCORE.INTER.norm>
-0.165306

>  <SCORE.INTRA>
-4.04432

>  <SCORE.INTRA.DIHEDRAL>
-5.42089

>  <SCORE.INTRA.DIHEDRAL.0>
15.0264

>  <SCORE.INTRA.POLAR>
0

>  <SCORE.INTRA.POLAR.0>
0

>  <SCORE.INTRA.REPUL>
0

>  <SCORE.INTRA.REPUL.0>
0

>  <SCORE.INTRA.VDW>
-1.33388

>  <SCORE.INTRA.VDW.0>
-4.74907

>  <SCORE.INTRA.norm>
-0.0986421

>  <SCORE.RESTR>
0

>  <SCORE.RESTR.CAVITY>
0

>  <SCORE.RESTR.norm>
0

>  <SCORE.SYSTEM>
0

>  <SCORE.SYSTEM.CONST>
0

>  <SCORE.SYSTEM.DIHEDRAL>
0

>  <SCORE.SYSTEM.norm>
0

>  <SCORE.heavy>
41

>  <SCORE.norm>
-0.263948

$$$$
ligands/mol8.pdb
  rDOCK(R)          3D
libRbt.so/2013.1/901 2013/11/27
 47 50  0  0  0  0  0  0  0  0999 V2000
  -13.2379  -17.2566   -2.5448 N   0  0  0  0  0  0
  -14.3168  -18.2535   -3.3635 S   0  0  0  0  0  0
  -15.6391  -17.6648   -3.1430 O   0  0  0  0  0  0
  -13.7647  -18.4455   -4.6688 O   0  0  0  0  0  0
  -14.2065  -19.7611   -2.4300 C   0  0  0  0  0  0
  -13.2298  -20.7065   -2.7280 C   0  0  0  0  0  0
  -13.1691  -21.8824   -1.9649 C   0  0  0  0  0  0
  -14.0921  -22.1207   -0.9334 C   0  0  0  0  0  0
  -14.0828  -23.4246   -0.1614 C   0  0  0  0  0  0
  -14.9823  -24.5551   -0.6301 C   0  0  0  0  0  0
  -16.2113  -24.2879   -1.2435 C   0  0  0  0  0  0
  -16.9092  -25.3062   -1.8907 C   0  0  0  0  0  0
  -16.3794  -26.6001   -1.9611 C   0  0  0  0  0  0
  -15.1629  -26.9073   -1.3510 C   0  0  0  0  0  0
  -14.5165  -28.1720   -1.4660 N   0  0  0  0  0  0
  -13.1588  -28.4333   -1.3410 C   0  0  0  0  0  0
  -12.2842  -27.5815   -1.1797 O   0  0  0  0  0  0
  -12.7481  -29.9148   -1.2655 C   0  0  0  0  0  0
  -13.3342  -30.4999    0.0599 C   0  0  0  0  0  0
  -12.9188  -32.2374    0.5014 S   0  0  0  0  0  0
  -12.9399  -30.7187   -2.5551 C   0  0  0  0  0  0
  -14.1038  -30.5194   -3.3136 C   0  0  0  0  0  0
  -14.3567  -31.0297   -4.5372 N   0  0  0  0  0  0
  -13.4258  -31.8356   -5.0461 C   0  0  0  0  0  0
  -12.3024  -32.2161   -4.3426 C   0  0  0  0  0  0
  -12.0311  -31.6798   -3.0673 C   0  0  0  0  0  0
  -10.8303  -32.2672   -2.3299 C   0  0  0  0  0  0
   -9.6129  -31.3327   -2.1715 C   0  0  0  0  0  0
   -9.0944  -30.7917   -3.4191 N   0  0  0  0  0  0
   -9.6121  -29.6418   -3.9711 C   0  0  0  0  0  0
  -10.5412  -29.0287   -3.4529 O   0  0  0  0  0  0
   -9.0035  -29.2380   -5.3215 C   0  0  0  0  0  0
   -9.7975  -28.0720   -5.9433 C   0  0  0  0  0  0
   -9.4937  -26.7240   -5.2771 C   0  0  0  0  0  0
   -7.9956  -26.4390   -5.1697 C   0  0  0  0  0  0
   -7.4159  -26.2671   -6.4624 O   0  0  0  0  0  0
   -7.2671  -27.5919   -4.4843 C   0  0  0  0  0  0
   -7.5083  -28.9024   -5.2347 C   0  0  0  0  0  0
  -14.4951  -25.8839   -0.6528 C   0  0  0  0  0  0
  -15.0851  -21.1575   -0.6808 C   0  0  0  0  0  0
  -15.1407  -19.9789   -1.4216 C   0  0  0  0  0  0
  -12.2820  -17.5625   -2.6991 H   0  0  0  0  0  0
  -13.5093  -17.2012   -1.5575 H   0  0  0  0  0  0
  -15.1326  -28.9676   -1.5977 H   0  0  0  0  0  0
  -13.9836  -32.4897    1.2786 H   0  0  0  0  0  0
   -8.1961  -31.1240   -3.7401 H   0  0  0  0  0  0
   -7.7917  -25.4693   -6.8709 H   0  0  0  0  0  0
  1  2  1  0  0  0
  1 42  1  0  0  0
  1 43  1  0  0  0
  2  3  2  0  0  0
  2  4  2  0  0  0
  2  5  1  0  0  0
  5  6  2  0  0  0
  5 41  1  0  0  0
  6  7  1  0  0  0
  7  8  2  0  0  0
  8  9  1  0  0  0
  8 40  1  0  0  0
  9 10  1  0  0  0
 10 11  2  0  0  0
 10 39  1  0  0  0
 11 12  1  0  0  0
 12 13  2  0  0  0
 13 14  1  0  0  0
 14 15  1  0  0  0
 14 39  2  0  0  0
 15 16  1  0  0  0
 15 44  1  0  0  0
 16 17  2  0  0  0
 16 18  1  0  0  0
 18 19  1  0  0  0
 18 21  1  0  0  0
 19 20  1  0  0  0
 20 45  1  0  0  0
 21 22  2  0  0  0
 21 26  1  0  0  0
 22 23  1  0  0  0
 23 24  2  0  0  0
 24 25  1  0  0  0
 25 26  2  0  0  0
 26 27  1  0  0  0
 27 28  1  0  0  0
 28 29  1  0  0  0
 29 30  1  0  0  0
 29 46  1  0  0  0
 30 31  2  0  0  0
 30 32  1  0  0  0
 32 33  1  0  0  0
 32 38  1  0  0  0
 33 34  1  0  0  0
 34 35  1  0  0  0
 35 36  1  0  0  0
 35 37  1  0  0  0
 36 47  1  0  0  0
 37 38  1  0  0  0
 40 41  2  0  0  0
M  END
>  <AUTHOR>
    GENERATED BY OPEN BABEL 2.3.2

>  <CHROM.1>
-176.23274342,-86.69703524,-93.15149914,-31.92266924,154.47564967,-65.42501875
-175.92895293,-41.33531139,-155.43839092,-74.01827518,-55.75105394,86.33270571
171.38352921,65.22881634,-12.59619100,-26.34382516,-2.70246528,-1.91267360
-0.60185138,2.98396119

>  <COMPND>
    UNNAMED

>  <MASTER>
        0    0    0    0    0    0    0    0   77    0   77    0

>  <Name>
ligands/mol8.pdb

>  <RI>
2.37556e+07

>  <Rbt.Current_Directory>
/home/rodrigo/Desktop/Rodrigo/Proyectos/test_OCONDOR/OCONDOR

>  <Rbt.Executable>
rbdock ($Id: //depot/dev/client3/rdock/2013.1/src/exe/rbdock.cxx#4 $)

>  <Rbt.Library>
libRbt.so (2013.1, Build901 2013/11/27)

>  <Rbt.Parameter_File>
dock.prm

>  <Rbt.Receptor>
rdock.prm

>  <SCORE>
-10.7345

>  <SCORE.INTER>
-6.7073

>  <SCORE.INTER.CONST>
1

>  <SCORE.INTER.POLAR>
-0.57264

>  <SCORE.INTER.REPUL>
0

>  <SCORE.INTER.ROT>
13

>  <SCORE.INTER.VDW>
-23.1603

>  <SCORE.INTER.norm>
-0.163593

>  <SCORE.INTRA>
-4.02718

>  <SCORE.INTRA.DIHEDRAL>
-3.97484

>  <SCORE.INTRA.DIHEDRAL.0>
15.0264

>  <SCORE.INTRA.POLAR>
0

>  <SCORE.INTRA.POLAR.0>
0

>  <SCORE.INTRA.REPUL>
0

>  <SCORE.INTRA.REPUL.0>
0

>  <SCORE.INTRA.VDW>
-2.03976

>  <SCORE.INTRA.VDW.0>
-4.74907

>  <SCORE.INTRA.norm>
-0.098224

>  <SCORE.RESTR>
0

>  <SCORE.RESTR.CAVITY>
0

>  <SCORE.RESTR.norm>
0

>  <SCORE.SYSTEM>
0

>  <SCORE.SYSTEM.CONST>
0

>  <SCORE.SYSTEM.DIHEDRAL>
0

>  <SCORE.SYSTEM.norm>
0

>  <SCORE.heavy>
41

>  <SCORE.norm>
-0.261817

$$$$
ligands/mol8.pdb
  rDOCK(R)          3D
libRbt.so/2013.1/901 2013/11/27
 47 50  0  0  0  0  0  0  0  0999 V2000
   -8.4868  -31.3885   -8.2426 N   0  0  0  0  0  0
  -10.0601  -31.0816   -7.7339 S   0  0  0  0  0  0
  -10.1361  -29.6313   -7.5481 O   0  0  0  0  0  0
  -10.9127  -31.7903   -8.6375 O   0  0  0  0  0  0
  -10.0889  -31.8584   -6.1364 C   0  0  0  0  0  0
  -10.8925  -32.9711   -5.9065 C   0  0  0  0  0  0
  -10.8843  -33.5621   -4.6340 C   0  0  0  0  0  0
  -10.1016  -33.0290   -3.5968 C   0  0  0  0  0  0
  -10.1523  -33.6129   -2.1994 C   0  0  0  0  0  0
  -10.8847  -32.8428   -1.1143 C   0  0  0  0  0  0
  -10.7263  -33.1771    0.2353 C   0  0  0  0  0  0
  -11.1948  -32.3209    1.2305 C   0  0  0  0  0  0
  -11.8031  -31.1051    0.8964 C   0  0  0  0  0  0
  -11.9896  -30.7434   -0.4381 C   0  0  0  0  0  0
  -12.5080  -29.4822   -0.8516 N   0  0  0  0  0  0
  -12.7969  -29.0797   -2.1485 C   0  0  0  0  0  0
  -12.5758  -29.7421   -3.1628 O   0  0  0  0  0  0
  -13.5754  -27.7607   -2.3014 C   0  0  0  0  0  0
  -15.0571  -28.0367   -1.8884 C   0  0  0  0  0  0
  -15.3926  -28.5686   -0.1589 S   0  0  0  0  0  0
  -12.8867  -26.5184   -1.7281 C   0  0  0  0  0  0
  -13.0909  -26.1897   -0.3790 C   0  0  0  0  0  0
  -12.4484  -25.2264    0.3142 N   0  0  0  0  0  0
  -11.5706  -24.4921   -0.3679 C   0  0  0  0  0  0
  -11.3802  -24.6278   -1.7270 C   0  0  0  0  0  0
  -12.0440  -25.6375   -2.4532 C   0  0  0  0  0  0
  -11.8564  -25.6131   -3.9682 C   0  0  0  0  0  0
  -12.9919  -24.9533   -4.7779 C   0  0  0  0  0  0
  -13.2691  -23.5697   -4.4217 N   0  0  0  0  0  0
  -14.0655  -23.2532   -3.3445 C   0  0  0  0  0  0
  -14.5924  -24.1143   -2.6456 O   0  0  0  0  0  0
  -14.3161  -21.7523   -3.1403 C   0  0  0  0  0  0
  -15.5531  -21.5291   -2.2477 C   0  0  0  0  0  0
  -15.2715  -21.7977   -0.7638 C   0  0  0  0  0  0
  -14.0262  -21.0714   -0.2548 C   0  0  0  0  0  0
  -14.2202  -19.6576   -0.2678 O   0  0  0  0  0  0
  -12.8156  -21.3815   -1.1312 C   0  0  0  0  0  0
  -13.0949  -21.0052   -2.5868 C   0  0  0  0  0  0
  -11.5627  -31.6420   -1.4337 C   0  0  0  0  0  0
   -9.3260  -31.8850   -3.8564 C   0  0  0  0  0  0
   -9.3141  -31.3034   -5.1222 C   0  0  0  0  0  0
   -7.8172  -31.0165   -7.5760 H   0  0  0  0  0  0
   -8.3661  -31.0422   -9.2003 H   0  0  0  0  0  0
  -12.7396  -28.8378   -0.1027 H   0  0  0  0  0  0
  -16.7094  -28.7944   -0.2877 H   0  0  0  0  0  0
  -12.6755  -22.8534   -4.8153 H   0  0  0  0  0  0
  -13.4335  -19.2297    0.1100 H   0  0  0  0  0  0
  1  2  1  0  0  0
  1 42  1  0  0  0
  1 43  1  0  0  0
  2  3  2  0  0  0
  2  4  2  0  0  0
  2  5  1  0  0  0
  5  6  2  0  0  0
  5 41  1  0  0  0
  6  7  1  0  0  0
  7  8  2  0  0  0
  8  9  1  0  0  0
  8 40  1  0  0  0
  9 10  1  0  0  0
 10 11  2  0  0  0
 10 39  1  0  0  0
 11 12  1  0  0  0
 12 13  2  0  0  0
 13 14  1  0  0  0
 14 15  1  0  0  0
 14 39  2  0  0  0
 15 16  1  0  0  0
 15 44  1  0  0  0
 16 17  2  0  0  0
 16 18  1  0  0  0
 18 19  1  0  0  0
 18 21  1  0  0  0
 19 20  1  0  0  0
 20 45  1  0  0  0
 21 22  2  0  0  0
 21 26  1  0  0  0
 22 23  1  0  0  0
 23 24  2  0  0  0
 24 25  1  0  0  0
 25 26  2  0  0  0
 26 27  1  0  0  0
 27 28  1  0  0  0
 28 29  1  0  0  0
 29 30  1  0  0  0
 29 46  1  0  0  0
 30 31  2  0  0  0
 30 32  1  0  0  0
 32 33  1  0  0  0
 32 38  1  0  0  0
 33 34  1  0  0  0
 34 35  1  0  0  0
 35 36  1  0  0  0
 35 37  1  0  0  0
 36 47  1  0  0  0
 37 38  1  0  0  0
 40 41  2  0  0  0
M  END
>  <AUTHOR>
    GENERATED BY OPEN BABEL 2.3.2

>  <CHROM.1>
55.87142039,-113.71208409,-105.73127155,-166.23785525,-175.81146490,-73.96366718
62.23481675,-87.84410702,-174.92883008,77.16092753,57.91156623,-82.27985054
161.01153329,176.65264655,-12.24881198,-27.82138533,-2.83320868,-0.50716241
1.18121584,-0.70876481

>  <COMPND>
    UNNAMED

>  <MASTER>
        0    0    0    0    0    0    0    0   77    0   77    0

>  <Name>
ligands/mol8.pdb

>  <RI>
2.37556e+07

>  <Rbt.Current_Directory>
/home/rodrigo/Desktop/Rodrigo/Proyectos/test_OCONDOR/OCONDOR

>  <Rbt.Executable>
rbdock ($Id: //depot/dev/client3/rdock/2013.1/src/exe/rbdock.cxx#4 $)

>  <Rbt.Library>
libRbt.so (2013.1, Build901 2013/11/27)

>  <Rbt.Parameter_File>
dock.prm

>  <Rbt.Receptor>
rdock.prm

>  <SCORE>
-10.9507

>  <SCORE.INTER>
-4.4

>  <SCORE.INTER.CONST>
1

>  <SCORE.INTER.POLAR>
0

>  <SCORE.INTER.REPUL>
0.00344815

>  <SCORE.INTER.ROT>
13

>  <SCORE.INTER.VDW>
-22.8172

>  <SCORE.INTER.norm>
-0.107317

>  <SCORE.INTRA>
-6.55068

>  <SCORE.INTRA.DIHEDRAL>
-7.42558

>  <SCORE.INTRA.DIHEDRAL.0>
15.0264

>  <SCORE.INTRA.POLAR>
0

>  <SCORE.INTRA.POLAR.0>
0

>  <SCORE.INTRA.REPUL>
0

>  <SCORE.INTRA.REPUL.0>
0

>  <SCORE.INTRA.VDW>
-2.83789

>  <SCORE.INTRA.VDW.0>
-4.74907

>  <SCORE.INTRA.norm>
-0.159773

>  <SCORE.RESTR>
0

>  <SCORE.RESTR.CAVITY>
0

>  <SCORE.RESTR.norm>
0

>  <SCORE.SYSTEM>
0

>  <SCORE.SYSTEM.CONST>
0

>  <SCORE.SYSTEM.DIHEDRAL>
0

>  <SCORE.SYSTEM.norm>
0

>  <SCORE.heavy>
41

>  <SCORE.norm>
-0.26709

$$$$
ligands/mol8.pdb
  rDOCK(R)          3D
libRbt.so/2013.1/901 2013/11/27
 47 50  0  0  0  0  0  0  0  0999 V2000
  -12.9013  -19.9092    1.3632 N   0  0  0  0  0  0
  -11.6210  -19.5662    0.3281 S   0  0  0  0  0  0
  -11.9905  -18.3249   -0.3546 O   0  0  0  0  0  0
  -10.4329  -19.6911    1.1146 O   0  0  0  0  0  0
  -11.7209  -20.9035   -0.8372 C   0  0  0  0  0  0
  -11.8217  -22.2193   -0.3953 C   0  0  0  0  0  0
  -11.9052  -23.2489   -1.3449 C   0  0  0  0  0  0
  -11.8611  -22.9664   -2.7200 C   0  0  0  0  0  0
  -11.8675  -24.0800   -3.7478 C   0  0  0  0  0  0
  -12.6249  -25.3581   -3.4323 C   0  0  0  0  0  0
  -14.0005  -25.4550   -3.6701 C   0  0  0  0  0  0
  -14.6367  -26.6942   -3.6170 C   0  0  0  0  0  0
  -13.9066  -27.8595   -3.3542 C   0  0  0  0  0  0
  -12.5361  -27.8008   -3.1000 C   0  0  0  0  0  0
  -11.7134  -28.9509   -2.9245 N   0  0  0  0  0  0
  -12.0475  -30.2699   -3.2004 C   0  0  0  0  0  0
  -13.1535  -30.6574   -3.5786 O   0  0  0  0  0  0
  -10.8991  -31.2938   -3.1547 C   0  0  0  0  0  0
  -10.9397  -31.9862   -1.7543 C   0  0  0  0  0  0
   -9.9313  -31.2609   -0.3965 S   0  0  0  0  0  0
  -10.7584  -32.1824   -4.3944 C   0  0  0  0  0  0
  -10.7260  -33.5761   -4.2316 C   0  0  0  0  0  0
  -10.7568  -34.4962   -5.2184 N   0  0  0  0  0  0
  -10.7735  -34.0266   -6.4650 C   0  0  0  0  0  0
  -10.6712  -32.6828   -6.7578 C   0  0  0  0  0  0
  -10.6461  -31.7182   -5.7300 C   0  0  0  0  0  0
  -10.4029  -30.2750   -6.1649 C   0  0  0  0  0  0
   -8.9312  -29.8123   -6.1741 C   0  0  0  0  0  0
   -8.0122  -30.7185   -6.8467 N   0  0  0  0  0  0
   -7.4737  -31.8055   -6.1961 C   0  0  0  0  0  0
   -7.7250  -32.0542   -5.0203 O   0  0  0  0  0  0
   -6.4711  -32.6253   -7.0207 C   0  0  0  0  0  0
   -5.5517  -33.4436   -6.0924 C   0  0  0  0  0  0
   -6.2475  -34.6780   -5.5045 C   0  0  0  0  0  0
   -6.9399  -35.5318   -6.5669 C   0  0  0  0  0  0
   -5.9847  -36.1223   -7.4476 O   0  0  0  0  0  0
   -7.8908  -34.6885   -7.4121 C   0  0  0  0  0  0
   -7.1421  -33.5265   -8.0662 C   0  0  0  0  0  0
  -11.9157  -26.5374   -3.1011 C   0  0  0  0  0  0
  -11.7271  -21.6279   -3.1299 C   0  0  0  0  0  0
  -11.6624  -20.5982   -2.1938 C   0  0  0  0  0  0
  -13.7245  -20.1811    0.8346 H   0  0  0  0  0  0
  -13.0486  -19.1153    1.9954 H   0  0  0  0  0  0
  -10.7639  -28.7668   -2.6172 H   0  0  0  0  0  0
  -10.1599  -29.9665   -0.6685 H   0  0  0  0  0  0
   -7.9711  -30.6855   -7.8554 H   0  0  0  0  0  0
   -6.4554  -36.6656   -8.1019 H   0  0  0  0  0  0
  1  2  1  0  0  0
  1 42  1  0  0  0
  1 43  1  0  0  0
  2  3  2  0  0  0
  2  4  2  0  0  0
  2  5  1  0  0  0
  5  6  2  0  0  0
  5 41  1  0  0  0
  6  7  1  0  0  0
  7  8  2  0  0  0
  8  9  1  0  0  0
  8 40  1  0  0  0
  9 10  1  0  0  0
 10 11  2  0  0  0
 10 39  1  0  0  0
 11 12  1  0  0  0
 12 13  2  0  0  0
 13 14  1  0  0  0
 14 15  1  0  0  0
 14 39  2  0  0  0
 15 16  1  0  0  0
 15 44  1  0  0  0
 16 17  2  0  0  0
 16 18  1  0  0  0
 18 19  1  0  0  0
 18 21  1  0  0  0
 19 20  1  0  0  0
 20 45  1  0  0  0
 21 22  2  0  0  0
 21 26  1  0  0  0
 22 23  1  0  0  0
 23 24  2  0  0  0
 24 25  1  0  0  0
 25 26  2  0  0  0
 26 27  1  0  0  0
 27 28  1  0  0  0
 28 29  1  0  0  0
 29 30  1  0  0  0
 29 46  1  0  0  0
 30 31  2  0  0  0
 30 32  1  0  0  0
 32 33  1  0  0  0
 32 38  1  0  0  0
 33 34  1  0  0  0
 34 35  1  0  0  0
 35 36  1  0  0  0
 35 37  1  0  0  0
 36 47  1  0  0  0
 37 38  1  0  0  0
 40 41  2  0  0  0
M  END
>  <AUTHOR>
    GENERATED BY OPEN BABEL 2.3.2

>  <CHROM.1>
69.60261268,-49.39266086,32.23081714,84.21691099,12.26141446,97.69880907
-91.77246878,-126.77080535,39.96081738,83.77539965,48.69498403,-83.77711640
158.38122324,179.30107808,-10.47661205,-28.37467434,-3.61274865,1.87154399
0.45855646,0.26148248

>  <COMPND>
    UNNAMED

>  <MASTER>
        0    0    0    0    0    0    0    0   77    0   77    0

>  <Name>
ligands/mol8.pdb

>  <RI>
2.37556e+07

>  <Rbt.Current_Directory>
/home/rodrigo/Desktop/Rodrigo/Proyectos/test_OCONDOR/OCONDOR

>  <Rbt.Executable>
rbdock ($Id: //depot/dev/client3/rdock/2013.1/src/exe/rbdock.cxx#4 $)

>  <Rbt.Library>
libRbt.so (2013.1, Build901 2013/11/27)

>  <Rbt.Parameter_File>
dock.prm

>  <Rbt.Receptor>
rdock.prm

>  <SCORE>
-6.81888

>  <SCORE.INTER>
-3.14385

>  <SCORE.INTER.CONST>
1

>  <SCORE.INTER.POLAR>
-1.04489

>  <SCORE.INTER.REPUL>
0

>  <SCORE.INTER.ROT>
13

>  <SCORE.INTER.VDW>
-17.9912

>  <SCORE.INTER.norm>
-0.0766794

>  <SCORE.INTRA>
-3.67779

>  <SCORE.INTRA.DIHEDRAL>
-2.577

>  <SCORE.INTRA.DIHEDRAL.0>
15.0264

>  <SCORE.INTRA.POLAR>
0

>  <SCORE.INTRA.POLAR.0>
0

>  <SCORE.INTRA.REPUL>
0

>  <SCORE.INTRA.REPUL.0>
0

>  <SCORE.INTRA.VDW>
-2.38929

>  <SCORE.INTRA.VDW.0>
-4.74907

>  <SCORE.INTRA.norm>
-0.0897022

>  <SCORE.RESTR>
0.0027696

>  <SCORE.RESTR.CAVITY>
0.0027696

>  <SCORE.RESTR.norm>
6.75513e-05

>  <SCORE.SYSTEM>
0

>  <SCORE.SYSTEM.CONST>
0

>  <SCORE.SYSTEM.DIHEDRAL>
0

>  <SCORE.SYSTEM.norm>
0

>  <SCORE.heavy>
41

>  <SCORE.norm>
-0.166314

$$$$
ligands/mol8.pdb
  rDOCK(R)          3D
libRbt.so/2013.1/901 2013/11/27
 47 50  0  0  0  0  0  0  0  0999 V2000
  -13.5138  -20.8819    0.5701 N   0  0  0  0  0  0
  -14.1988  -21.3990   -0.8761 S   0  0  0  0  0  0
  -15.3684  -22.1926   -0.4943 O   0  0  0  0  0  0
  -14.2906  -20.2384   -1.7070 O   0  0  0  0  0  0
  -12.9509  -22.4971   -1.5030 C   0  0  0  0  0  0
  -12.2498  -23.3352   -0.6411 C   0  0  0  0  0  0
  -11.2759  -24.1937   -1.1733 C   0  0  0  0  0  0
  -10.9887  -24.1936   -2.5481 C   0  0  0  0  0  0
   -9.8813  -25.0583   -3.1158 C   0  0  0  0  0  0
  -10.2466  -26.1582   -4.0975 C   0  0  0  0  0  0
  -10.6095  -25.8542   -5.4143 C   0  0  0  0  0  0
  -10.6982  -26.8655   -6.3696 C   0  0  0  0  0  0
  -10.3989  -28.1912   -6.0338 C   0  0  0  0  0  0
  -10.0455  -28.5345   -4.7285 C   0  0  0  0  0  0
   -9.6322  -29.8409   -4.3377 N   0  0  0  0  0  0
   -9.7236  -31.0072   -5.0853 C   0  0  0  0  0  0
  -10.2526  -31.0999   -6.1935 O   0  0  0  0  0  0
   -8.9836  -32.2381   -4.5318 C   0  0  0  0  0  0
   -9.1137  -33.3817   -5.5889 C   0  0  0  0  0  0
  -10.7993  -33.9883   -6.0101 S   0  0  0  0  0  0
   -7.6001  -31.9624   -3.9348 C   0  0  0  0  0  0
   -6.4712  -32.0566   -4.7632 C   0  0  0  0  0  0
   -5.2099  -31.7040   -4.4374 N   0  0  0  0  0  0
   -5.0201  -31.2685   -3.1927 C   0  0  0  0  0  0
   -6.0217  -31.2580   -2.2447 C   0  0  0  0  0  0
   -7.3419  -31.6187   -2.5831 C   0  0  0  0  0  0
   -8.3380  -31.6929   -1.4284 C   0  0  0  0  0  0
   -7.9557  -32.6342   -0.2673 C   0  0  0  0  0  0
   -7.8071  -34.0329   -0.6411 N   0  0  0  0  0  0
   -6.5820  -34.5547   -0.9899 C   0  0  0  0  0  0
   -5.5639  -33.8690   -1.0201 O   0  0  0  0  0  0
   -6.6024  -36.0276   -1.4227 C   0  0  0  0  0  0
   -7.4230  -36.1976   -2.7167 C   0  0  0  0  0  0
   -6.6678  -35.7253   -3.9657 C   0  0  0  0  0  0
   -5.2604  -36.3139   -4.0667 C   0  0  0  0  0  0
   -5.3121  -37.7257   -4.2687 O   0  0  0  0  0  0
   -4.4670  -36.0571   -2.7883 C   0  0  0  0  0  0
   -5.2000  -36.6323   -1.5758 C   0  0  0  0  0  0
  -10.0141  -27.5132   -3.7606 C   0  0  0  0  0  0
  -11.6947  -23.3110   -3.3848 C   0  0  0  0  0  0
  -12.6763  -22.4688   -2.8671 C   0  0  0  0  0  0
  -14.1982  -20.3839    1.1311 H   0  0  0  0  0  0
  -12.6622  -20.3470    0.3701 H   0  0  0  0  0  0
   -9.1715  -29.9023   -3.4356 H   0  0  0  0  0  0
  -11.3075  -32.8275   -6.4527 H   0  0  0  0  0  0
   -8.5561  -34.6671   -0.4021 H   0  0  0  0  0  0
   -4.4049  -38.0633   -4.3565 H   0  0  0  0  0  0
  1  2  1  0  0  0
  1 42  1  0  0  0
  1 43  1  0  0  0
  2  3  2  0  0  0
  2  4  2  0  0  0
  2  5  1  0  0  0
  5  6  2  0  0  0
  5 41  1  0  0  0
  6  7  1  0  0  0
  7  8  2  0  0  0
  8  9  1  0  0  0
  8 40  1  0  0  0
  9 10  1  0  0  0
 10 11  2  0  0  0
 10 39  1  0  0  0
 11 12  1  0  0  0
 12 13  2  0  0  0
 13 14  1  0  0  0
 14 15  1  0  0  0
 14 39  2  0  0  0
 15 16  1  0  0  0
 15 44  1  0  0  0
 16 17  2  0  0  0
 16 18  1  0  0  0
 18 19  1  0  0  0
 18 21  1  0  0  0
 19 20  1  0  0  0
 20 45  1  0  0  0
 21 22  2  0  0  0
 21 26  1  0  0  0
 22 23  1  0  0  0
 23 24  2  0  0  0
 24 25  1  0  0  0
 25 26  2  0  0  0
 26 27  1  0  0  0
 27 28  1  0  0  0
 28 29  1  0  0  0
 29 30  1  0  0  0
 29 46  1  0  0  0
 30 31  2  0  0  0
 30 32  1  0  0  0
 32 33  1  0  0  0
 32 38  1  0  0  0
 33 34  1  0  0  0
 34 35  1  0  0  0
 35 36  1  0  0  0
 35 37  1  0  0  0
 36 47  1  0  0  0
 37 38  1  0  0  0
 40 41  2  0  0  0
M  END
>  <AUTHOR>
    GENERATED BY OPEN BABEL 2.3.2

>  <CHROM.1>
-55.50825296,38.69275600,116.54672255,74.03683074,-11.75401556,-174.91030383
-61.44129062,-91.42947056,59.49939533,119.40543275,-60.91792620,93.21255125
64.37275033,178.23009349,-9.35427645,-29.56807141,-3.07128522,-2.52592205
0.97349195,-2.15994155

>  <COMPND>
    UNNAMED

>  <MASTER>
        0    0    0    0    0    0    0    0   77    0   77    0

>  <Name>
ligands/mol8.pdb

>  <RI>
2.37556e+07

>  <Rbt.Current_Directory>
/home/rodrigo/Desktop/Rodrigo/Proyectos/test_OCONDOR/OCONDOR

>  <Rbt.Executable>
rbdock ($Id: //depot/dev/client3/rdock/2013.1/src/exe/rbdock.cxx#4 $)

>  <Rbt.Library>
libRbt.so (2013.1, Build901 2013/11/27)

>  <Rbt.Parameter_File>
dock.prm

>  <Rbt.Receptor>
rdock.prm

>  <SCORE>
-5.95105

>  <SCORE.INTER>
-1.33692

>  <SCORE.INTER.CONST>
1

>  <SCORE.INTER.POLAR>
-0.938083

>  <SCORE.INTER.REPUL>
0

>  <SCORE.INTER.ROT>
13

>  <SCORE.INTER.VDW>
-16.5474

>  <SCORE.INTER.norm>
-0.0326078

>  <SCORE.INTRA>
-4.61413

>  <SCORE.INTRA.DIHEDRAL>
-6.72822

>  <SCORE.INTRA.DIHEDRAL.0>
15.0264

>  <SCORE.INTRA.POLAR>
-0.232639

>  <SCORE.INTRA.POLAR.0>
0

>  <SCORE.INTRA.REPUL>
0

>  <SCORE.INTRA.REPUL.0>
0

>  <SCORE.INTRA.VDW>
-0.459045

>  <SCORE.INTRA.VDW.0>
-4.74907

>  <SCORE.INTRA.norm>
-0.11254

>  <SCORE.RESTR>
0

>  <SCORE.RESTR.CAVITY>
0

>  <SCORE.RESTR.norm>
0

>  <SCORE.SYSTEM>
0

>  <SCORE.SYSTEM.CONST>
0

>  <SCORE.SYSTEM.DIHEDRAL>
0

>  <SCORE.SYSTEM.norm>
0

>  <SCORE.heavy>
41

>  <SCORE.norm>
-0.145148

$$$$
