ligands/mol10.pdb
  rDOCK(R)          3D
libRbt.so/2013.1/901 2013/11/27
 47 50  0  0  0  0  0  0  0  0999 V2000
  -12.2824  -18.8416    0.8355 N   0  0  0  0  0  0
  -13.2857  -19.8562   -0.0515 S   0  0  0  0  0  0
  -13.8296  -20.8052    0.9006 O   0  0  0  0  0  0
  -14.1152  -18.9819   -0.8308 O   0  0  0  0  0  0
  -12.1605  -20.7148   -1.1134 C   0  0  0  0  0  0
  -10.9623  -21.1988   -0.5766 C   0  0  0  0  0  0
  -10.0536  -21.8651   -1.4015 C   0  0  0  0  0  0
  -10.3299  -22.0520   -2.7639 C   0  0  0  0  0  0
   -9.3360  -22.7756   -3.6507 C   0  0  0  0  0  0
   -9.5309  -24.2762   -3.7020 C   0  0  0  0  0  0
   -8.8576  -25.0576   -4.6491 C   0  0  0  0  0  0
   -8.9895  -26.4448   -4.6387 C   0  0  0  0  0  0
   -9.7923  -27.0664   -3.6787 C   0  0  0  0  0  0
  -10.5348  -26.3011   -2.7824 C   0  0  0  0  0  0
  -11.3882  -26.9636   -1.8744 N   0  0  0  0  0  0
  -12.5373  -26.3826   -1.3507 C   0  0  0  0  0  0
  -12.9505  -25.2716   -1.6800 O   0  0  0  0  0  0
  -13.2507  -27.2183   -0.2786 C   0  0  0  0  0  0
  -13.8801  -26.3383    0.8283 C   0  0  0  0  0  0
  -13.8033  -26.9471    2.5521 S   0  0  0  0  0  0
  -14.1920  -28.2728   -0.8342 C   0  0  0  0  0  0
  -13.9101  -28.9960   -1.9984 C   0  0  0  0  0  0
  -14.7971  -29.9764   -2.4542 C   0  0  0  0  0  0
  -14.5240  -30.7746   -3.7027 C   0  0  0  0  0  0
  -13.5480  -31.9384   -3.4879 C   0  0  0  0  0  0
  -13.2469  -32.6490   -4.7160 N   0  0  0  0  0  0
  -12.4551  -32.0921   -5.6989 C   0  0  0  0  0  0
  -11.8812  -31.0177   -5.5594 O   0  0  0  0  0  0
  -12.3825  -32.9202   -6.9834 C   0  0  0  0  0  0
  -11.7738  -32.1255   -8.1504 C   0  0  0  0  0  0
  -10.2559  -31.9650   -8.0408 C   0  0  0  0  0  0
   -9.5395  -33.2964   -7.8357 C   0  0  0  0  0  0
   -9.5920  -34.0564   -9.0412 O   0  0  0  0  0  0
  -10.1267  -34.0874   -6.6685 C   0  0  0  0  0  0
  -11.6432  -34.2438   -6.7607 C   0  0  0  0  0  0
  -15.9549  -30.1871   -1.7164 C   0  0  0  0  0  0
  -16.2569  -29.5235   -0.5838 N   0  0  0  0  0  0
  -15.3817  -28.5801   -0.1751 C   0  0  0  0  0  0
  -10.3955  -24.9093   -2.7941 C   0  0  0  0  0  0
  -11.5312  -21.5448   -3.2898 C   0  0  0  0  0  0
  -12.4462  -20.8785   -2.4679 C   0  0  0  0  0  0
  -12.8046  -18.4496    1.6206 H   0  0  0  0  0  0
  -11.9033  -18.1253    0.2116 H   0  0  0  0  0  0
  -11.3164  -27.9729   -1.8345 H   0  0  0  0  0  0
  -14.9878  -27.5900    2.5269 H   0  0  0  0  0  0
  -13.8191  -33.4512   -4.9471 H   0  0  0  0  0  0
   -9.1266  -33.5776   -9.7447 H   0  0  0  0  0  0
  1  2  1  0  0  0
  1 42  1  0  0  0
  1 43  1  0  0  0
  2  3  2  0  0  0
  2  4  2  0  0  0
  2  5  1  0  0  0
  5  6  2  0  0  0
  5 41  1  0  0  0
  6  7  1  0  0  0
  7  8  2  0  0  0
  8  9  1  0  0  0
  8 40  1  0  0  0
  9 10  1  0  0  0
 10 11  2  0  0  0
 10 39  1  0  0  0
 11 12  1  0  0  0
 12 13  2  0  0  0
 13 14  1  0  0  0
 14 15  1  0  0  0
 14 39  2  0  0  0
 15 16  1  0  0  0
 15 44  1  0  0  0
 16 17  2  0  0  0
 16 18  1  0  0  0
 18 19  1  0  0  0
 18 21  1  0  0  0
 19 20  1  0  0  0
 20 45  1  0  0  0
 21 22  2  0  0  0
 21 38  1  0  0  0
 22 23  1  0  0  0
 23 24  1  0  0  0
 23 36  2  0  0  0
 24 25  1  0  0  0
 25 26  1  0  0  0
 26 27  1  0  0  0
 26 46  1  0  0  0
 27 28  2  0  0  0
 27 29  1  0  0  0
 29 30  1  0  0  0
 29 35  1  0  0  0
 30 31  1  0  0  0
 31 32  1  0  0  0
 32 33  1  0  0  0
 32 34  1  0  0  0
 33 47  1  0  0  0
 34 35  1  0  0  0
 36 37  1  0  0  0
 37 38  2  0  0  0
 40 41  2  0  0  0
M  END
>  <AUTHOR>
    GENERATED BY OPEN BABEL 2.3.2

>  <CHROM.1>
-53.80290988,43.74182359,88.91155965,168.53403520,-152.31640928,144.53631328
-141.74044671,36.92754341,-91.57086516,80.50190090,-177.00883440,71.99387507
166.66714853,62.24050607,-12.24427267,-26.85120605,-2.74465813,-1.66470164
-0.82980851,-2.73654022

>  <COMPND>
    UNNAMED

>  <MASTER>
        0    0    0    0    0    0    0    0   77    0   77    0

>  <Name>
ligands/mol10.pdb

>  <RI>
2.19534e+07

>  <Rbt.Current_Directory>
/home/rodrigo/Desktop/Rodrigo/Proyectos/test_OCONDOR/OCONDOR

>  <Rbt.Executable>
rbdock ($Id: //depot/dev/client3/rdock/2013.1/src/exe/rbdock.cxx#4 $)

>  <Rbt.Library>
libRbt.so (2013.1, Build901 2013/11/27)

>  <Rbt.Parameter_File>
dock.prm

>  <Rbt.Receptor>
rdock.prm

>  <SCORE>
-16.471

>  <SCORE.INTER>
-18.2418

>  <SCORE.INTER.CONST>
1

>  <SCORE.INTER.POLAR>
-2.7516

>  <SCORE.INTER.REPUL>
0

>  <SCORE.INTER.ROT>
13

>  <SCORE.INTER.VDW>
-27.2863

>  <SCORE.INTER.norm>
-0.444921

>  <SCORE.INTRA>
1.77073

>  <SCORE.INTRA.DIHEDRAL>
-0.909139

>  <SCORE.INTRA.DIHEDRAL.0>
15.2397

>  <SCORE.INTRA.POLAR>
0.13644

>  <SCORE.INTRA.POLAR.0>
-0.13644

>  <SCORE.INTRA.REPUL>
0

>  <SCORE.INTRA.REPUL.0>
0

>  <SCORE.INTRA.VDW>
1.76141

>  <SCORE.INTRA.VDW.0>
-4.66274

>  <SCORE.INTRA.norm>
0.0431886

>  <SCORE.RESTR>
0

>  <SCORE.RESTR.CAVITY>
0

>  <SCORE.RESTR.norm>
0

>  <SCORE.SYSTEM>
0

>  <SCORE.SYSTEM.CONST>
0

>  <SCORE.SYSTEM.DIHEDRAL>
0

>  <SCORE.SYSTEM.norm>
0

>  <SCORE.heavy>
41

>  <SCORE.norm>
-0.401732

$$$$
ligands/mol10.pdb
  rDOCK(R)          3D
libRbt.so/2013.1/901 2013/11/27
 47 50  0  0  0  0  0  0  0  0999 V2000
  -13.4005  -20.5035   -5.3919 N   0  0  0  0  0  0
  -12.5444  -21.2238   -4.1384 S   0  0  0  0  0  0
  -11.4666  -21.9615   -4.7687 O   0  0  0  0  0  0
  -12.3099  -20.1744   -3.1879 O   0  0  0  0  0  0
  -13.6998  -22.3860   -3.4714 C   0  0  0  0  0  0
  -14.6680  -21.9326   -2.5686 C   0  0  0  0  0  0
  -15.5789  -22.8369   -2.0186 C   0  0  0  0  0  0
  -15.5313  -24.1962   -2.3613 C   0  0  0  0  0  0
  -16.5241  -25.1696   -1.7575 C   0  0  0  0  0  0
  -15.9489  -26.0381   -0.6588 C   0  0  0  0  0  0
  -15.7710  -25.5366    0.6364 C   0  0  0  0  0  0
  -15.3091  -26.3675    1.6553 C   0  0  0  0  0  0
  -15.0243  -27.7098    1.3917 C   0  0  0  0  0  0
  -15.1151  -28.2045    0.0927 C   0  0  0  0  0  0
  -14.7509  -29.5470   -0.1454 N   0  0  0  0  0  0
  -14.3203  -30.0085   -1.3839 C   0  0  0  0  0  0
  -14.1527  -29.2813   -2.3619 O   0  0  0  0  0  0
  -14.1031  -31.5261   -1.4662 C   0  0  0  0  0  0
  -14.1234  -32.0432   -2.9250 C   0  0  0  0  0  0
  -15.6547  -31.8013   -3.8970 S   0  0  0  0  0  0
  -12.9257  -32.0324   -0.6515 C   0  0  0  0  0  0
  -11.5982  -31.8603   -1.0590 C   0  0  0  0  0  0
  -10.5475  -32.3211   -0.2592 C   0  0  0  0  0  0
   -9.1068  -32.1511   -0.6667 C   0  0  0  0  0  0
   -8.2798  -33.4383   -0.5554 C   0  0  0  0  0  0
   -6.8931  -33.2459   -0.9349 N   0  0  0  0  0  0
   -6.0587  -34.3136   -1.1934 C   0  0  0  0  0  0
   -6.4533  -35.4743   -1.2159 O   0  0  0  0  0  0
   -4.5973  -33.9211   -1.4195 C   0  0  0  0  0  0
   -3.9586  -33.3172   -0.1580 C   0  0  0  0  0  0
   -3.6244  -34.3647    0.9064 C   0  0  0  0  0  0
   -2.7909  -35.5167    0.3530 C   0  0  0  0  0  0
   -1.4693  -35.0583    0.0755 O   0  0  0  0  0  0
   -3.4246  -36.1340   -0.8920 C   0  0  0  0  0  0
   -3.7738  -35.0963   -1.9569 C   0  0  0  0  0  0
  -10.8780  -32.9554    0.9314 C   0  0  0  0  0  0
  -12.1409  -33.1285    1.3668 N   0  0  0  0  0  0
  -13.1311  -32.6768    0.5678 C   0  0  0  0  0  0
  -15.5835  -27.3677   -0.9256 C   0  0  0  0  0  0
  -14.5415  -24.6372   -3.2574 C   0  0  0  0  0  0
  -13.6277  -23.7355   -3.8132 C   0  0  0  0  0  0
  -14.0274  -21.1906   -5.8133 H   0  0  0  0  0  0
  -12.7353  -20.1079   -6.0606 H   0  0  0  0  0  0
  -14.5242  -30.1089    0.6660 H   0  0  0  0  0  0
  -16.4231  -32.6239   -3.1554 H   0  0  0  0  0  0
   -6.4833  -32.3352   -0.7713 H   0  0  0  0  0  0
   -1.0452  -34.7782    0.9017 H   0  0  0  0  0  0
  1  2  1  0  0  0
  1 42  1  0  0  0
  1 43  1  0  0  0
  2  3  2  0  0  0
  2  4  2  0  0  0
  2  5  1  0  0  0
  5  6  2  0  0  0
  5 41  1  0  0  0
  6  7  1  0  0  0
  7  8  2  0  0  0
  8  9  1  0  0  0
  8 40  1  0  0  0
  9 10  1  0  0  0
 10 11  2  0  0  0
 10 39  1  0  0  0
 11 12  1  0  0  0
 12 13  2  0  0  0
 13 14  1  0  0  0
 14 15  1  0  0  0
 14 39  2  0  0  0
 15 16  1  0  0  0
 15 44  1  0  0  0
 16 17  2  0  0  0
 16 18  1  0  0  0
 18 19  1  0  0  0
 18 21  1  0  0  0
 19 20  1  0  0  0
 20 45  1  0  0  0
 21 22  2  0  0  0
 21 38  1  0  0  0
 22 23  1  0  0  0
 23 24  1  0  0  0
 23 36  2  0  0  0
 24 25  1  0  0  0
 25 26  1  0  0  0
 26 27  1  0  0  0
 26 46  1  0  0  0
 27 28  2  0  0  0
 27 29  1  0  0  0
 29 30  1  0  0  0
 29 35  1  0  0  0
 30 31  1  0  0  0
 31 32  1  0  0  0
 32 33  1  0  0  0
 32 34  1  0  0  0
 33 47  1  0  0  0
 34 35  1  0  0  0
 36 37  1  0  0  0
 37 38  2  0  0  0
 40 41  2  0  0  0
M  END
>  <AUTHOR>
    GENERATED BY OPEN BABEL 2.3.2

>  <CHROM.1>
80.10409686,-81.83669449,-103.64747674,78.60299848,-155.10793057,159.64080294
-60.91358734,-75.47153779,-66.12609442,-131.08785090,-179.19559419,-165.27944608
64.85515841,63.31969941,-11.40045736,-29.14236617,-1.50974962,-2.24777634
-0.09709100,2.85824818

>  <COMPND>
    UNNAMED

>  <MASTER>
        0    0    0    0    0    0    0    0   77    0   77    0

>  <Name>
ligands/mol10.pdb

>  <RI>
2.19534e+07

>  <Rbt.Current_Directory>
/home/rodrigo/Desktop/Rodrigo/Proyectos/test_OCONDOR/OCONDOR

>  <Rbt.Executable>
rbdock ($Id: //depot/dev/client3/rdock/2013.1/src/exe/rbdock.cxx#4 $)

>  <Rbt.Library>
libRbt.so (2013.1, Build901 2013/11/27)

>  <Rbt.Parameter_File>
dock.prm

>  <Rbt.Receptor>
rdock.prm

>  <SCORE>
-18.4446

>  <SCORE.INTER>
-17.234

>  <SCORE.INTER.CONST>
1

>  <SCORE.INTER.POLAR>
-1.87135

>  <SCORE.INTER.REPUL>
0.128134

>  <SCORE.INTER.ROT>
13

>  <SCORE.INTER.VDW>
-29.9121

>  <SCORE.INTER.norm>
-0.420341

>  <SCORE.INTRA>
-1.21411

>  <SCORE.INTRA.DIHEDRAL>
-5.82762

>  <SCORE.INTRA.DIHEDRAL.0>
15.2397

>  <SCORE.INTRA.POLAR>
0.13644

>  <SCORE.INTRA.POLAR.0>
-0.13644

>  <SCORE.INTRA.REPUL>
0

>  <SCORE.INTRA.REPUL.0>
0

>  <SCORE.INTRA.VDW>
1.2358

>  <SCORE.INTRA.VDW.0>
-4.66274

>  <SCORE.INTRA.norm>
-0.0296125

>  <SCORE.RESTR>
0.00350719

>  <SCORE.RESTR.CAVITY>
0.00350719

>  <SCORE.RESTR.norm>
8.55411e-05

>  <SCORE.SYSTEM>
0

>  <SCORE.SYSTEM.CONST>
0

>  <SCORE.SYSTEM.DIHEDRAL>
0

>  <SCORE.SYSTEM.norm>
0

>  <SCORE.heavy>
41

>  <SCORE.norm>
-0.449868

$$$$
ligands/mol10.pdb
  rDOCK(R)          3D
libRbt.so/2013.1/901 2013/11/27
 47 50  0  0  0  0  0  0  0  0999 V2000
  -13.2964  -18.5270   -1.2377 N   0  0  0  0  0  0
  -14.1719  -19.9609   -1.2623 S   0  0  0  0  0  0
  -14.9704  -19.9571   -0.0517 O   0  0  0  0  0  0
  -14.7547  -20.0265   -2.5722 O   0  0  0  0  0  0
  -12.9225  -21.2035   -1.1019 C   0  0  0  0  0  0
  -11.7828  -20.9202   -0.3411 C   0  0  0  0  0  0
  -10.7780  -21.8817   -0.2154 C   0  0  0  0  0  0
  -10.8995  -23.1284   -0.8465 C   0  0  0  0  0  0
   -9.8021  -24.1645   -0.7045 C   0  0  0  0  0  0
   -9.9853  -25.1025    0.4698 C   0  0  0  0  0  0
   -9.4170  -24.8143    1.7167 C   0  0  0  0  0  0
   -9.6537  -25.6484    2.8076 C   0  0  0  0  0  0
  -10.4649  -26.7772    2.6651 C   0  0  0  0  0  0
  -10.9697  -27.1253    1.4144 C   0  0  0  0  0  0
  -11.7259  -28.3112    1.2978 N   0  0  0  0  0  0
  -12.4500  -28.6408    0.1579 C   0  0  0  0  0  0
  -12.4438  -27.9680   -0.8721 O   0  0  0  0  0  0
  -13.3113  -29.9053    0.2848 C   0  0  0  0  0  0
  -14.5549  -29.8626   -0.6358 C   0  0  0  0  0  0
  -15.8480  -28.6208   -0.2696 S   0  0  0  0  0  0
  -12.5285  -31.2040    0.1997 C   0  0  0  0  0  0
  -11.1459  -31.2376   -0.0125 C   0  0  0  0  0  0
  -10.4665  -32.4593   -0.0557 C   0  0  0  0  0  0
   -8.9783  -32.5318   -0.2807 C   0  0  0  0  0  0
   -8.5355  -31.9915   -1.6465 C   0  0  0  0  0  0
   -9.2049  -32.6505   -2.7517 N   0  0  0  0  0  0
  -10.3924  -32.1735   -3.2667 C   0  0  0  0  0  0
  -10.9018  -31.1216   -2.8960 O   0  0  0  0  0  0
  -11.0273  -33.0873   -4.3168 C   0  0  0  0  0  0
  -12.3954  -32.5660   -4.7863 C   0  0  0  0  0  0
  -12.2891  -31.3703   -5.7354 C   0  0  0  0  0  0
  -11.3574  -31.6388   -6.9136 C   0  0  0  0  0  0
  -11.9703  -32.5696   -7.8032 O   0  0  0  0  0  0
   -9.9897  -32.1427   -6.4573 C   0  0  0  0  0  0
  -10.0835  -33.3288   -5.4996 C   0  0  0  0  0  0
  -11.2166  -33.6167    0.1082 C   0  0  0  0  0  0
  -12.5454  -33.6276    0.3287 N   0  0  0  0  0  0
  -13.1708  -32.4313    0.3589 C   0  0  0  0  0  0
  -10.7329  -26.2825    0.3235 C   0  0  0  0  0  0
  -12.0438  -23.3900   -1.6204 C   0  0  0  0  0  0
  -13.0547  -22.4315   -1.7481 C   0  0  0  0  0  0
  -12.7093  -18.4736   -2.0715 H   0  0  0  0  0  0
  -12.7592  -18.4838   -0.3685 H   0  0  0  0  0  0
  -11.4998  -29.0612    1.9396 H   0  0  0  0  0  0
  -15.0040  -27.5813   -0.1132 H   0  0  0  0  0  0
   -8.9194  -33.5946   -2.9782 H   0  0  0  0  0  0
  -12.8606  -32.2593   -8.0313 H   0  0  0  0  0  0
  1  2  1  0  0  0
  1 42  1  0  0  0
  1 43  1  0  0  0
  2  3  2  0  0  0
  2  4  2  0  0  0
  2  5  1  0  0  0
  5  6  2  0  0  0
  5 41  1  0  0  0
  6  7  1  0  0  0
  7  8  2  0  0  0
  8  9  1  0  0  0
  8 40  1  0  0  0
  9 10  1  0  0  0
 10 11  2  0  0  0
 10 39  1  0  0  0
 11 12  1  0  0  0
 12 13  2  0  0  0
 13 14  1  0  0  0
 14 15  1  0  0  0
 14 39  2  0  0  0
 15 16  1  0  0  0
 15 44  1  0  0  0
 16 17  2  0  0  0
 16 18  1  0  0  0
 18 19  1  0  0  0
 18 21  1  0  0  0
 19 20  1  0  0  0
 20 45  1  0  0  0
 21 22  2  0  0  0
 21 38  1  0  0  0
 22 23  1  0  0  0
 23 24  1  0  0  0
 23 36  2  0  0  0
 24 25  1  0  0  0
 25 26  1  0  0  0
 26 27  1  0  0  0
 26 46  1  0  0  0
 27 28  2  0  0  0
 27 29  1  0  0  0
 29 30  1  0  0  0
 29 35  1  0  0  0
 30 31  1  0  0  0
 31 32  1  0  0  0
 32 33  1  0  0  0
 32 34  1  0  0  0
 33 47  1  0  0  0
 34 35  1  0  0  0
 36 37  1  0  0  0
 37 38  2  0  0  0
 40 41  2  0  0  0
M  END
>  <AUTHOR>
    GENERATED BY OPEN BABEL 2.3.2

>  <CHROM.1>
179.89911702,32.86983206,90.49379807,-91.93735580,169.40102991,151.85146328
-66.74104980,-1.63265928,47.01978966,-63.20318487,-55.85075412,90.26142059
175.86930394,52.09047366,-11.91112385,-27.71951487,-1.35470552,2.22131161
-1.31378112,0.84651638

>  <COMPND>
    UNNAMED

>  <MASTER>
        0    0    0    0    0    0    0    0   77    0   77    0

>  <Name>
ligands/mol10.pdb

>  <RI>
2.19534e+07

>  <Rbt.Current_Directory>
/home/rodrigo/Desktop/Rodrigo/Proyectos/test_OCONDOR/OCONDOR

>  <Rbt.Executable>
rbdock ($Id: //depot/dev/client3/rdock/2013.1/src/exe/rbdock.cxx#4 $)

>  <Rbt.Library>
libRbt.so (2013.1, Build901 2013/11/27)

>  <Rbt.Parameter_File>
dock.prm

>  <Rbt.Receptor>
rdock.prm

>  <SCORE>
-16.7402

>  <SCORE.INTER>
-14.7245

>  <SCORE.INTER.CONST>
1

>  <SCORE.INTER.POLAR>
-0.979796

>  <SCORE.INTER.REPUL>
0.0807281

>  <SCORE.INTER.ROT>
13

>  <SCORE.INTER.VDW>
-30.1968

>  <SCORE.INTER.norm>
-0.359133

>  <SCORE.INTRA>
-2.01571

>  <SCORE.INTRA.DIHEDRAL>
-5.38936

>  <SCORE.INTRA.DIHEDRAL.0>
15.2397

>  <SCORE.INTRA.POLAR>
0.13644

>  <SCORE.INTRA.POLAR.0>
-0.13644

>  <SCORE.INTRA.REPUL>
0

>  <SCORE.INTRA.REPUL.0>
0

>  <SCORE.INTRA.VDW>
0.21507

>  <SCORE.INTRA.VDW.0>
-4.66274

>  <SCORE.INTRA.norm>
-0.0491638

>  <SCORE.RESTR>
0

>  <SCORE.RESTR.CAVITY>
0

>  <SCORE.RESTR.norm>
0

>  <SCORE.SYSTEM>
0

>  <SCORE.SYSTEM.CONST>
0

>  <SCORE.SYSTEM.DIHEDRAL>
0

>  <SCORE.SYSTEM.norm>
0

>  <SCORE.heavy>
41

>  <SCORE.norm>
-0.408297

$$$$
ligands/mol10.pdb
  rDOCK(R)          3D
libRbt.so/2013.1/901 2013/11/27
 47 50  0  0  0  0  0  0  0  0999 V2000
   -7.9149  -34.9269   -1.7355 N   0  0  0  0  0  0
   -7.5886  -34.0408   -3.1252 S   0  0  0  0  0  0
   -6.9124  -32.8385   -2.6776 O   0  0  0  0  0  0
   -6.9866  -34.9725   -4.0359 O   0  0  0  0  0  0
   -9.1975  -33.5910   -3.7084 C   0  0  0  0  0  0
   -9.6260  -34.0771   -4.9486 C   0  0  0  0  0  0
  -10.8860  -33.7208   -5.4339 C   0  0  0  0  0  0
  -11.7256  -32.8783   -4.6904 C   0  0  0  0  0  0
  -13.0909  -32.4968   -5.2271 C   0  0  0  0  0  0
  -13.9738  -31.7864   -4.2229 C   0  0  0  0  0  0
  -14.8692  -32.5020   -3.4186 C   0  0  0  0  0  0
  -15.6230  -31.8448   -2.4482 C   0  0  0  0  0  0
  -15.4866  -30.4659   -2.2680 C   0  0  0  0  0  0
  -14.6639  -29.7256   -3.1138 C   0  0  0  0  0  0
  -14.6072  -28.3256   -2.9452 N   0  0  0  0  0  0
  -15.0572  -27.6802   -1.7992 C   0  0  0  0  0  0
  -15.4803  -28.2701   -0.8060 O   0  0  0  0  0  0
  -15.0315  -26.1469   -1.8710 C   0  0  0  0  0  0
  -15.7011  -25.4908   -0.6393 C   0  0  0  0  0  0
  -16.1848  -23.7306   -0.7649 S   0  0  0  0  0  0
  -13.6733  -25.5616   -2.2161 C   0  0  0  0  0  0
  -13.3832  -25.0217   -3.4739 C   0  0  0  0  0  0
  -12.1248  -24.4696   -3.7335 C   0  0  0  0  0  0
  -11.7794  -23.8786   -5.0759 C   0  0  0  0  0  0
  -12.5957  -22.6279   -5.4261 C   0  0  0  0  0  0
  -12.4876  -21.5901   -4.4184 N   0  0  0  0  0  0
  -13.4829  -21.3795   -3.4867 C   0  0  0  0  0  0
  -14.4642  -22.1078   -3.3876 O   0  0  0  0  0  0
  -13.2655  -20.1430   -2.6122 C   0  0  0  0  0  0
  -14.4737  -19.8558   -1.7057 C   0  0  0  0  0  0
  -14.5725  -20.8126   -0.5154 C   0  0  0  0  0  0
  -13.2759  -20.8865    0.2857 C   0  0  0  0  0  0
  -13.0876  -19.6672    1.0009 O   0  0  0  0  0  0
  -12.0710  -21.1866   -0.6037 C   0  0  0  0  0  0
  -11.9689  -20.2454   -1.8022 C   0  0  0  0  0  0
  -11.1902  -24.4916   -2.7063 C   0  0  0  0  0  0
  -11.4333  -24.9882   -1.4780 N   0  0  0  0  0  0
  -12.6563  -25.5184   -1.2631 C   0  0  0  0  0  0
  -13.9061  -30.3905   -4.0834 C   0  0  0  0  0  0
  -11.2724  -32.3860   -3.4538 C   0  0  0  0  0  0
  -10.0121  -32.7413   -2.9616 C   0  0  0  0  0  0
   -7.0410  -35.2888   -1.3509 H   0  0  0  0  0  0
   -8.5852  -35.6646   -1.9649 H   0  0  0  0  0  0
  -13.9657  -27.8197   -3.5437 H   0  0  0  0  0  0
  -15.7666  -23.3818    0.4683 H   0  0  0  0  0  0
  -11.7905  -20.8699   -4.5586 H   0  0  0  0  0  0
  -12.2245  -19.6830    1.4433 H   0  0  0  0  0  0
  1  2  1  0  0  0
  1 42  1  0  0  0
  1 43  1  0  0  0
  2  3  2  0  0  0
  2  4  2  0  0  0
  2  5  1  0  0  0
  5  6  2  0  0  0
  5 41  1  0  0  0
  6  7  1  0  0  0
  7  8  2  0  0  0
  8  9  1  0  0  0
  8 40  1  0  0  0
  9 10  1  0  0  0
 10 11  2  0  0  0
 10 39  1  0  0  0
 11 12  1  0  0  0
 12 13  2  0  0  0
 13 14  1  0  0  0
 14 15  1  0  0  0
 14 39  2  0  0  0
 15 16  1  0  0  0
 15 44  1  0  0  0
 16 17  2  0  0  0
 16 18  1  0  0  0
 18 19  1  0  0  0
 18 21  1  0  0  0
 19 20  1  0  0  0
 20 45  1  0  0  0
 21 22  2  0  0  0
 21 38  1  0  0  0
 22 23  1  0  0  0
 23 24  1  0  0  0
 23 36  2  0  0  0
 24 25  1  0  0  0
 25 26  1  0  0  0
 26 27  1  0  0  0
 26 46  1  0  0  0
 27 28  2  0  0  0
 27 29  1  0  0  0
 29 30  1  0  0  0
 29 35  1  0  0  0
 30 31  1  0  0  0
 31 32  1  0  0  0
 32 33  1  0  0  0
 32 34  1  0  0  0
 33 47  1  0  0  0
 34 35  1  0  0  0
 36 37  1  0  0  0
 37 38  2  0  0  0
 40 41  2  0  0  0
M  END
>  <AUTHOR>
    GENERATED BY OPEN BABEL 2.3.2

>  <CHROM.1>
-69.88777678,-116.43225936,169.98585276,-92.48924907,16.24148223,173.06048554
-163.02392161,105.85046959,-138.13566389,65.27611744,55.75813342,-101.17342856
173.30295396,-174.77769751,-12.53690034,-27.34232238,-2.66221048,-1.25770654
0.10417145,0.12361189

>  <COMPND>
    UNNAMED

>  <MASTER>
        0    0    0    0    0    0    0    0   77    0   77    0

>  <Name>
ligands/mol10.pdb

>  <RI>
2.19534e+07

>  <Rbt.Current_Directory>
/home/rodrigo/Desktop/Rodrigo/Proyectos/test_OCONDOR/OCONDOR

>  <Rbt.Executable>
rbdock ($Id: //depot/dev/client3/rdock/2013.1/src/exe/rbdock.cxx#4 $)

>  <Rbt.Library>
libRbt.so (2013.1, Build901 2013/11/27)

>  <Rbt.Parameter_File>
dock.prm

>  <Rbt.Receptor>
rdock.prm

>  <SCORE>
-16.1992

>  <SCORE.INTER>
-14.2781

>  <SCORE.INTER.CONST>
1

>  <SCORE.INTER.POLAR>
-1.81094

>  <SCORE.INTER.REPUL>
0.0327032

>  <SCORE.INTER.ROT>
13

>  <SCORE.INTER.VDW>
-26.6844

>  <SCORE.INTER.norm>
-0.348247

>  <SCORE.INTRA>
-1.92111

>  <SCORE.INTRA.DIHEDRAL>
-4.00934

>  <SCORE.INTRA.DIHEDRAL.0>
15.2397

>  <SCORE.INTRA.POLAR>
0.13644

>  <SCORE.INTRA.POLAR.0>
-0.13644

>  <SCORE.INTRA.REPUL>
0

>  <SCORE.INTRA.REPUL.0>
0

>  <SCORE.INTRA.VDW>
-0.380339

>  <SCORE.INTRA.VDW.0>
-4.66274

>  <SCORE.INTRA.norm>
-0.0468564

>  <SCORE.RESTR>
0

>  <SCORE.RESTR.CAVITY>
0

>  <SCORE.RESTR.norm>
0

>  <SCORE.SYSTEM>
0

>  <SCORE.SYSTEM.CONST>
0

>  <SCORE.SYSTEM.DIHEDRAL>
0

>  <SCORE.SYSTEM.norm>
0

>  <SCORE.heavy>
41

>  <SCORE.norm>
-0.395103

$$$$
ligands/mol10.pdb
  rDOCK(R)          3D
libRbt.so/2013.1/901 2013/11/27
 47 50  0  0  0  0  0  0  0  0999 V2000
   -4.0440  -29.2652    1.7007 N   0  0  0  0  0  0
   -3.5223  -30.7108    1.0216 S   0  0  0  0  0  0
   -2.1660  -30.4680    0.5692 O   0  0  0  0  0  0
   -3.8453  -31.7216    1.9879 O   0  0  0  0  0  0
   -4.5602  -30.8907   -0.4001 C   0  0  0  0  0  0
   -4.2060  -30.2307   -1.5820 C   0  0  0  0  0  0
   -5.0204  -30.3470   -2.7104 C   0  0  0  0  0  0
   -6.1916  -31.1177   -2.6696 C   0  0  0  0  0  0
   -7.0691  -31.2363   -3.8999 C   0  0  0  0  0  0
   -8.2965  -30.3501   -3.8719 C   0  0  0  0  0  0
   -8.3189  -29.1296   -4.5579 C   0  0  0  0  0  0
   -9.4792  -28.3584   -4.5841 C   0  0  0  0  0  0
  -10.6311  -28.8010   -3.9287 C   0  0  0  0  0  0
  -10.6028  -29.9702   -3.1722 C   0  0  0  0  0  0
  -11.7661  -30.3467   -2.4673 N   0  0  0  0  0  0
  -11.7617  -31.2838   -1.4407 C   0  0  0  0  0  0
  -10.7407  -31.8173   -1.0088 O   0  0  0  0  0  0
  -13.1497  -31.6502   -0.8967 C   0  0  0  0  0  0
  -13.0763  -32.6985    0.2398 C   0  0  0  0  0  0
  -11.8471  -32.4340    1.5692 S   0  0  0  0  0  0
  -14.0283  -30.4544   -0.5733 C   0  0  0  0  0  0
  -13.7366  -29.5648    0.4666 C   0  0  0  0  0  0
  -14.5630  -28.4623    0.7068 C   0  0  0  0  0  0
  -14.2776  -27.4840    1.8168 C   0  0  0  0  0  0
  -12.7828  -27.2115    2.0278 C   0  0  0  0  0  0
  -12.1205  -26.7631    0.8177 N   0  0  0  0  0  0
  -11.0409  -25.9053    0.8589 C   0  0  0  0  0  0
  -10.5157  -25.5493    1.9081 O   0  0  0  0  0  0
  -10.5797  -25.4185   -0.5163 C   0  0  0  0  0  0
  -11.6435  -24.5519   -1.2100 C   0  0  0  0  0  0
  -11.7437  -23.1412   -0.6254 C   0  0  0  0  0  0
  -10.3933  -22.4331   -0.5697 C   0  0  0  0  0  0
   -9.9789  -22.0926   -1.8911 O   0  0  0  0  0  0
   -9.3326  -23.2794    0.1314 C   0  0  0  0  0  0
   -9.2319  -24.6940   -0.4358 C   0  0  0  0  0  0
  -15.6721  -28.3010   -0.1135 C   0  0  0  0  0  0
  -15.9804  -29.1253   -1.1332 N   0  0  0  0  0  0
  -15.1649  -30.1825   -1.3339 C   0  0  0  0  0  0
   -9.4371  -30.7430   -3.1527 C   0  0  0  0  0  0
   -6.5408  -31.7607   -1.4689 C   0  0  0  0  0  0
   -5.7277  -31.6497   -0.3360 C   0  0  0  0  0  0
   -3.3518  -28.9386    2.3766 H   0  0  0  0  0  0
   -4.9679  -29.4102    2.1147 H   0  0  0  0  0  0
  -12.5544  -29.7128   -2.5166 H   0  0  0  0  0  0
  -10.7680  -32.4184    0.7615 H   0  0  0  0  0  0
  -12.6078  -26.8918   -0.0599 H   0  0  0  0  0  0
   -9.1537  -21.5846   -1.8494 H   0  0  0  0  0  0
  1  2  1  0  0  0
  1 42  1  0  0  0
  1 43  1  0  0  0
  2  3  2  0  0  0
  2  4  2  0  0  0
  2  5  1  0  0  0
  5  6  2  0  0  0
  5 41  1  0  0  0
  6  7  1  0  0  0
  7  8  2  0  0  0
  8  9  1  0  0  0
  8 40  1  0  0  0
  9 10  1  0  0  0
 10 11  2  0  0  0
 10 39  1  0  0  0
 11 12  1  0  0  0
 12 13  2  0  0  0
 13 14  1  0  0  0
 14 15  1  0  0  0
 14 39  2  0  0  0
 15 16  1  0  0  0
 15 44  1  0  0  0
 16 17  2  0  0  0
 16 18  1  0  0  0
 18 19  1  0  0  0
 18 21  1  0  0  0
 19 20  1  0  0  0
 20 45  1  0  0  0
 21 22  2  0  0  0
 21 38  1  0  0  0
 22 23  1  0  0  0
 23 24  1  0  0  0
 23 36  2  0  0  0
 24 25  1  0  0  0
 25 26  1  0  0  0
 26 27  1  0  0  0
 26 46  1  0  0  0
 27 28  2  0  0  0
 27 29  1  0  0  0
 29 30  1  0  0  0
 29 35  1  0  0  0
 30 31  1  0  0  0
 31 32  1  0  0  0
 32 33  1  0  0  0
 32 34  1  0  0  0
 33 47  1  0  0  0
 34 35  1  0  0  0
 36 37  1  0  0  0
 37 38  2  0  0  0
 40 41  2  0  0  0
M  END
>  <AUTHOR>
    GENERATED BY OPEN BABEL 2.3.2

>  <CHROM.1>
-50.96322348,83.48755610,-100.98927237,99.46488696,-163.63575877,179.87120400
46.64927618,-67.19129814,-58.56718853,36.84064669,55.25294767,149.23688587
65.00367012,175.79744901,-9.68385163,-28.93575317,-0.65298803,-0.37589473
0.00297373,0.04807913

>  <COMPND>
    UNNAMED

>  <MASTER>
        0    0    0    0    0    0    0    0   77    0   77    0

>  <Name>
ligands/mol10.pdb

>  <RI>
2.19534e+07

>  <Rbt.Current_Directory>
/home/rodrigo/Desktop/Rodrigo/Proyectos/test_OCONDOR/OCONDOR

>  <Rbt.Executable>
rbdock ($Id: //depot/dev/client3/rdock/2013.1/src/exe/rbdock.cxx#4 $)

>  <Rbt.Library>
libRbt.so (2013.1, Build901 2013/11/27)

>  <Rbt.Parameter_File>
dock.prm

>  <Rbt.Receptor>
rdock.prm

>  <SCORE>
-13.702

>  <SCORE.INTER>
-10.8179

>  <SCORE.INTER.CONST>
1

>  <SCORE.INTER.POLAR>
-0.841562

>  <SCORE.INTER.REPUL>
0.0774061

>  <SCORE.INTER.ROT>
13

>  <SCORE.INTER.VDW>
-26.7436

>  <SCORE.INTER.norm>
-0.263851

>  <SCORE.INTRA>
-2.88413

>  <SCORE.INTRA.DIHEDRAL>
-6.06722

>  <SCORE.INTRA.DIHEDRAL.0>
15.2397

>  <SCORE.INTRA.POLAR>
-0.332847

>  <SCORE.INTRA.POLAR.0>
-0.13644

>  <SCORE.INTRA.REPUL>
0

>  <SCORE.INTRA.REPUL.0>
0

>  <SCORE.INTRA.VDW>
1.28116

>  <SCORE.INTRA.VDW.0>
-4.66274

>  <SCORE.INTRA.norm>
-0.0703446

>  <SCORE.RESTR>
0

>  <SCORE.RESTR.CAVITY>
0

>  <SCORE.RESTR.norm>
0

>  <SCORE.SYSTEM>
0

>  <SCORE.SYSTEM.CONST>
0

>  <SCORE.SYSTEM.DIHEDRAL>
0

>  <SCORE.SYSTEM.norm>
0

>  <SCORE.heavy>
41

>  <SCORE.norm>
-0.334196

$$$$
ligands/mol10.pdb
  rDOCK(R)          3D
libRbt.so/2013.1/901 2013/11/27
 47 50  0  0  0  0  0  0  0  0999 V2000
  -12.6591  -17.1525   -3.6475 N   0  0  0  0  0  0
  -13.6778  -18.0741   -2.6801 S   0  0  0  0  0  0
  -13.1230  -18.0033   -1.3421 O   0  0  0  0  0  0
  -15.0048  -17.6245   -2.9912 O   0  0  0  0  0  0
  -13.4452  -19.7174   -3.2936 C   0  0  0  0  0  0
  -12.3532  -19.9775   -4.1290 C   0  0  0  0  0  0
  -12.1610  -21.2641   -4.6366 C   0  0  0  0  0  0
  -13.0538  -22.2981   -4.3184 C   0  0  0  0  0  0
  -12.8366  -23.6909   -4.8758 C   0  0  0  0  0  0
  -12.1274  -24.6334   -3.9265 C   0  0  0  0  0  0
  -10.7322  -24.6197   -3.8072 C   0  0  0  0  0  0
  -10.0975  -25.4410   -2.8774 C   0  0  0  0  0  0
  -10.8508  -26.2814   -2.0535 C   0  0  0  0  0  0
  -12.2314  -26.3698   -2.2156 C   0  0  0  0  0  0
  -12.9484  -27.2824   -1.4126 N   0  0  0  0  0  0
  -12.6195  -27.5499   -0.0888 C   0  0  0  0  0  0
  -11.7222  -26.9702    0.5214 O   0  0  0  0  0  0
  -13.4390  -28.6715    0.5648 C   0  0  0  0  0  0
  -14.8380  -28.1881    1.0177 C   0  0  0  0  0  0
  -16.0558  -27.7592   -0.2788 S   0  0  0  0  0  0
  -13.4635  -29.9679   -0.2260 C   0  0  0  0  0  0
  -14.3458  -30.1844   -1.2902 C   0  0  0  0  0  0
  -14.3102  -31.3860   -2.0050 C   0  0  0  0  0  0
  -15.2446  -31.6516   -3.1570 C   0  0  0  0  0  0
  -14.6113  -31.4058   -4.5324 C   0  0  0  0  0  0
  -13.7832  -32.5126   -4.9718 N   0  0  0  0  0  0
  -12.6497  -32.3113   -5.7320 C   0  0  0  0  0  0
  -12.2190  -31.1947   -5.9987 O   0  0  0  0  0  0
  -11.9991  -33.6020   -6.2335 C   0  0  0  0  0  0
  -11.8614  -33.6234   -7.7648 C   0  0  0  0  0  0
  -10.7321  -32.7277   -8.2788 C   0  0  0  0  0  0
   -9.3996  -33.0131   -7.5924 C   0  0  0  0  0  0
   -8.8968  -34.2727   -8.0330 O   0  0  0  0  0  0
   -9.5221  -32.9791   -6.0703 C   0  0  0  0  0  0
  -10.6542  -33.8603   -5.5462 C   0  0  0  0  0  0
  -13.3822  -32.3407   -1.6095 C   0  0  0  0  0  0
  -12.5064  -32.1665   -0.6010 N   0  0  0  0  0  0
  -12.5716  -30.9975    0.0714 C   0  0  0  0  0  0
  -12.8642  -25.5402   -3.1472 C   0  0  0  0  0  0
  -14.1548  -22.0151   -3.4909 C   0  0  0  0  0  0
  -14.3511  -20.7287   -2.9777 C   0  0  0  0  0  0
  -11.6893  -17.3203   -3.3754 H   0  0  0  0  0  0
  -12.9307  -16.1695   -3.5694 H   0  0  0  0  0  0
  -13.8840  -27.5213   -1.7179 H   0  0  0  0  0  0
  -17.1353  -28.2192    0.3849 H   0  0  0  0  0  0
  -14.1773  -33.4433   -4.9212 H   0  0  0  0  0  0
   -8.0108  -34.4132   -7.6638 H   0  0  0  0  0  0
  1  2  1  0  0  0
  1 42  1  0  0  0
  1 43  1  0  0  0
  2  3  2  0  0  0
  2  4  2  0  0  0
  2  5  1  0  0  0
  5  6  2  0  0  0
  5 41  1  0  0  0
  6  7  1  0  0  0
  7  8  2  0  0  0
  8  9  1  0  0  0
  8 40  1  0  0  0
  9 10  1  0  0  0
 10 11  2  0  0  0
 10 39  1  0  0  0
 11 12  1  0  0  0
 12 13  2  0  0  0
 13 14  1  0  0  0
 14 15  1  0  0  0
 14 39  2  0  0  0
 15 16  1  0  0  0
 15 44  1  0  0  0
 16 17  2  0  0  0
 16 18  1  0  0  0
 18 19  1  0  0  0
 18 21  1  0  0  0
 19 20  1  0  0  0
 20 45  1  0  0  0
 21 22  2  0  0  0
 21 38  1  0  0  0
 22 23  1  0  0  0
 23 24  1  0  0  0
 23 36  2  0  0  0
 24 25  1  0  0  0
 25 26  1  0  0  0
 26 27  1  0  0  0
 26 46  1  0  0  0
 27 28  2  0  0  0
 27 29  1  0  0  0
 29 30  1  0  0  0
 29 35  1  0  0  0
 30 31  1  0  0  0
 31 32  1  0  0  0
 32 33  1  0  0  0
 32 34  1  0  0  0
 33 47  1  0  0  0
 34 35  1  0  0  0
 36 37  1  0  0  0
 37 38  2  0  0  0
 40 41  2  0  0  0
M  END
>  <AUTHOR>
    GENERATED BY OPEN BABEL 2.3.2

>  <CHROM.1>
40.33790825,14.36745366,97.10455431,-82.10601745,36.09403966,-79.40687223
68.88053009,-82.89194027,144.13540063,98.86150004,80.30537867,-146.43017838
123.50583188,174.50190951,-12.79790326,-27.04028300,-3.22527535,-1.81402358
-1.09406578,3.08408499

>  <COMPND>
    UNNAMED

>  <MASTER>
        0    0    0    0    0    0    0    0   77    0   77    0

>  <Name>
ligands/mol10.pdb

>  <RI>
2.19534e+07

>  <Rbt.Current_Directory>
/home/rodrigo/Desktop/Rodrigo/Proyectos/test_OCONDOR/OCONDOR

>  <Rbt.Executable>
rbdock ($Id: //depot/dev/client3/rdock/2013.1/src/exe/rbdock.cxx#4 $)

>  <Rbt.Library>
libRbt.so (2013.1, Build901 2013/11/27)

>  <Rbt.Parameter_File>
dock.prm

>  <Rbt.Receptor>
rdock.prm

>  <SCORE>
-9.9557

>  <SCORE.INTER>
-10.3563

>  <SCORE.INTER.CONST>
1

>  <SCORE.INTER.POLAR>
-0.749312

>  <SCORE.INTER.REPUL>
0

>  <SCORE.INTER.ROT>
13

>  <SCORE.INTER.VDW>
-26.2086

>  <SCORE.INTER.norm>
-0.252593

>  <SCORE.INTRA>
0.400596

>  <SCORE.INTRA.DIHEDRAL>
1.58592

>  <SCORE.INTRA.DIHEDRAL.0>
15.2397

>  <SCORE.INTRA.POLAR>
0.13644

>  <SCORE.INTRA.POLAR.0>
-0.13644

>  <SCORE.INTRA.REPUL>
0

>  <SCORE.INTRA.REPUL.0>
0

>  <SCORE.INTRA.VDW>
-0.856258

>  <SCORE.INTRA.VDW.0>
-4.66274

>  <SCORE.INTRA.norm>
0.00977065

>  <SCORE.RESTR>
0

>  <SCORE.RESTR.CAVITY>
0

>  <SCORE.RESTR.norm>
0

>  <SCORE.SYSTEM>
0

>  <SCORE.SYSTEM.CONST>
0

>  <SCORE.SYSTEM.DIHEDRAL>
0

>  <SCORE.SYSTEM.norm>
0

>  <SCORE.heavy>
41

>  <SCORE.norm>
-0.242822

$$$$
ligands/mol10.pdb
  rDOCK(R)          3D
libRbt.so/2013.1/901 2013/11/27
 47 50  0  0  0  0  0  0  0  0999 V2000
   -7.8145  -36.3712   -2.9659 N   0  0  0  0  0  0
   -6.7206  -35.3999   -3.7923 S   0  0  0  0  0  0
   -5.9296  -34.7391   -2.7721 O   0  0  0  0  0  0
   -6.1386  -36.2501   -4.7913 O   0  0  0  0  0  0
   -7.7543  -34.1903   -4.5665 C   0  0  0  0  0  0
   -7.1781  -33.2866   -5.4661 C   0  0  0  0  0  0
   -7.9738  -32.3142   -6.0755 C   0  0  0  0  0  0
   -9.3452  -32.2335   -5.7926 C   0  0  0  0  0  0
  -10.1996  -31.1733   -6.4587 C   0  0  0  0  0  0
  -10.4942  -29.9751   -5.5812 C   0  0  0  0  0  0
  -10.1845  -28.6776   -6.0070 C   0  0  0  0  0  0
  -10.5271  -27.5787   -5.2215 C   0  0  0  0  0  0
  -11.1872  -27.7646   -4.0041 C   0  0  0  0  0  0
  -11.4283  -29.0504   -3.5256 C   0  0  0  0  0  0
  -12.0336  -29.1971   -2.2592 N   0  0  0  0  0  0
  -12.4947  -30.4156   -1.7748 C   0  0  0  0  0  0
  -12.3575  -31.4827   -2.3715 O   0  0  0  0  0  0
  -13.2414  -30.3359   -0.4357 C   0  0  0  0  0  0
  -12.3479  -30.7471    0.7594 C   0  0  0  0  0  0
  -10.9236  -29.6748    1.1713 S   0  0  0  0  0  0
  -13.9964  -29.0359   -0.2194 C   0  0  0  0  0  0
  -13.4397  -27.9454    0.4578 C   0  0  0  0  0  0
  -14.1664  -26.7598    0.6071 C   0  0  0  0  0  0
  -13.5970  -25.5660    1.3291 C   0  0  0  0  0  0
  -12.1750  -25.1994    0.8858 C   0  0  0  0  0  0
  -12.0137  -23.7780    0.6456 N   0  0  0  0  0  0
  -12.5430  -23.1685   -0.4731 C   0  0  0  0  0  0
  -13.2580  -23.7590   -1.2752 O   0  0  0  0  0  0
  -12.1344  -21.7030   -0.6356 C   0  0  0  0  0  0
  -12.4490  -21.1673   -2.0421 C   0  0  0  0  0  0
  -13.9378  -20.8878   -2.2592 C   0  0  0  0  0  0
  -14.5304  -19.9941   -1.1737 C   0  0  0  0  0  0
  -14.0345  -18.6659   -1.3268 O   0  0  0  0  0  0
  -14.2366  -20.5258    0.2276 C   0  0  0  0  0  0
  -12.7548  -20.8200    0.4522 C   0  0  0  0  0  0
  -15.4470  -26.7203    0.0707 C   0  0  0  0  0  0
  -16.0139  -27.7416   -0.6000 N   0  0  0  0  0  0
  -15.2871  -28.8730   -0.7211 C   0  0  0  0  0  0
  -11.0865  -30.1499   -4.3198 C   0  0  0  0  0  0
   -9.9043  -33.1392   -4.8738 C   0  0  0  0  0  0
   -9.1126  -34.1168   -4.2620 C   0  0  0  0  0  0
   -8.5544  -36.6679   -3.6041 H   0  0  0  0  0  0
   -8.1689  -35.8544   -2.1576 H   0  0  0  0  0  0
  -11.8632  -28.4614   -1.5843 H   0  0  0  0  0  0
  -10.4045  -29.6471   -0.0724 H   0  0  0  0  0  0
  -11.3064  -23.2887    1.1789 H   0  0  0  0  0  0
  -14.3091  -18.3166   -2.1891 H   0  0  0  0  0  0
  1  2  1  0  0  0
  1 42  1  0  0  0
  1 43  1  0  0  0
  2  3  2  0  0  0
  2  4  2  0  0  0
  2  5  1  0  0  0
  5  6  2  0  0  0
  5 41  1  0  0  0
  6  7  1  0  0  0
  7  8  2  0  0  0
  8  9  1  0  0  0
  8 40  1  0  0  0
  9 10  1  0  0  0
 10 11  2  0  0  0
 10 39  1  0  0  0
 11 12  1  0  0  0
 12 13  2  0  0  0
 13 14  1  0  0  0
 14 15  1  0  0  0
 14 39  2  0  0  0
 15 16  1  0  0  0
 15 44  1  0  0  0
 16 17  2  0  0  0
 16 18  1  0  0  0
 18 19  1  0  0  0
 18 21  1  0  0  0
 19 20  1  0  0  0
 20 45  1  0  0  0
 21 22  2  0  0  0
 21 38  1  0  0  0
 22 23  1  0  0  0
 23 24  1  0  0  0
 23 36  2  0  0  0
 24 25  1  0  0  0
 25 26  1  0  0  0
 26 27  1  0  0  0
 26 46  1  0  0  0
 27 28  2  0  0  0
 27 29  1  0  0  0
 29 30  1  0  0  0
 29 35  1  0  0  0
 30 31  1  0  0  0
 31 32  1  0  0  0
 32 33  1  0  0  0
 32 34  1  0  0  0
 33 47  1  0  0  0
 34 35  1  0  0  0
 36 37  1  0  0  0
 37 38  2  0  0  0
 40 41  2  0  0  0
M  END
>  <AUTHOR>
    GENERATED BY OPEN BABEL 2.3.2

>  <CHROM.1>
165.03476281,-173.30171186,-100.75759228,124.81718421,170.28122069,-100.38709567
66.29359008,-93.59327795,-51.75761613,48.00228081,133.74187876,-73.90507831
165.97145043,61.61305429,-11.33138801,-28.53846225,-2.13981602,0.76534471
-0.95888387,2.74490728

>  <COMPND>
    UNNAMED

>  <MASTER>
        0    0    0    0    0    0    0    0   77    0   77    0

>  <Name>
ligands/mol10.pdb

>  <RI>
2.19534e+07

>  <Rbt.Current_Directory>
/home/rodrigo/Desktop/Rodrigo/Proyectos/test_OCONDOR/OCONDOR

>  <Rbt.Executable>
rbdock ($Id: //depot/dev/client3/rdock/2013.1/src/exe/rbdock.cxx#4 $)

>  <Rbt.Library>
libRbt.so (2013.1, Build901 2013/11/27)

>  <Rbt.Parameter_File>
dock.prm

>  <Rbt.Receptor>
rdock.prm

>  <SCORE>
-9.03814

>  <SCORE.INTER>
-9.90636

>  <SCORE.INTER.CONST>
1

>  <SCORE.INTER.POLAR>
-1.41955

>  <SCORE.INTER.REPUL>
0

>  <SCORE.INTER.ROT>
13

>  <SCORE.INTER.VDW>
-23.4799

>  <SCORE.INTER.norm>
-0.241619

>  <SCORE.INTRA>
0.868225

>  <SCORE.INTRA.DIHEDRAL>
0.326307

>  <SCORE.INTRA.DIHEDRAL.0>
15.2397

>  <SCORE.INTRA.POLAR>
0.13644

>  <SCORE.INTRA.POLAR.0>
-0.13644

>  <SCORE.INTRA.REPUL>
0

>  <SCORE.INTRA.REPUL.0>
0

>  <SCORE.INTRA.VDW>
0.241176

>  <SCORE.INTRA.VDW.0>
-4.66274

>  <SCORE.INTRA.norm>
0.0211762

>  <SCORE.RESTR>
0

>  <SCORE.RESTR.CAVITY>
0

>  <SCORE.RESTR.norm>
0

>  <SCORE.SYSTEM>
0

>  <SCORE.SYSTEM.CONST>
0

>  <SCORE.SYSTEM.DIHEDRAL>
0

>  <SCORE.SYSTEM.norm>
0

>  <SCORE.heavy>
41

>  <SCORE.norm>
-0.220442

$$$$
ligands/mol10.pdb
  rDOCK(R)          3D
libRbt.so/2013.1/901 2013/11/27
 47 50  0  0  0  0  0  0  0  0999 V2000
  -12.8440  -18.3167   -1.3430 N   0  0  0  0  0  0
  -13.6711  -19.7786   -1.3835 S   0  0  0  0  0  0
  -14.6549  -19.7056   -0.3205 O   0  0  0  0  0  0
  -14.0325  -19.9714   -2.7589 O   0  0  0  0  0  0
  -12.4362  -20.9580   -0.9199 C   0  0  0  0  0  0
  -11.1596  -20.8550   -1.4834 C   0  0  0  0  0  0
  -10.1756  -21.7855   -1.1428 C   0  0  0  0  0  0
  -10.4555  -22.8237   -0.2423 C   0  0  0  0  0  0
   -9.3804  -23.8292    0.1197 C   0  0  0  0  0  0
   -9.8391  -24.9068    1.0793 C   0  0  0  0  0  0
   -9.3925  -24.9265    2.4063 C   0  0  0  0  0  0
   -9.8787  -25.8805    3.2982 C   0  0  0  0  0  0
  -10.8201  -26.8222    2.8745 C   0  0  0  0  0  0
  -11.2125  -26.8704    1.5388 C   0  0  0  0  0  0
  -12.1113  -27.8809    1.1352 N   0  0  0  0  0  0
  -12.5490  -28.0281   -0.1759 C   0  0  0  0  0  0
  -12.1440  -27.3393   -1.1114 O   0  0  0  0  0  0
  -13.6270  -29.1022   -0.3786 C   0  0  0  0  0  0
  -14.9274  -28.7818    0.3975 C   0  0  0  0  0  0
  -15.8272  -27.2489   -0.0370 S   0  0  0  0  0  0
  -13.8570  -29.4886   -1.8292 C   0  0  0  0  0  0
  -13.5899  -30.7721   -2.3182 C   0  0  0  0  0  0
  -13.8447  -31.0860   -3.6571 C   0  0  0  0  0  0
  -13.5703  -32.4581   -4.2162 C   0  0  0  0  0  0
  -12.3308  -32.5185   -5.1180 C   0  0  0  0  0  0
  -11.3171  -33.4254   -4.6142 N   0  0  0  0  0  0
  -10.6533  -33.1829   -3.4295 C   0  0  0  0  0  0
  -10.9414  -32.2516   -2.6858 O   0  0  0  0  0  0
   -9.5115  -34.1605   -3.1441 C   0  0  0  0  0  0
   -8.3410  -33.9853   -4.1256 C   0  0  0  0  0  0
   -7.4942  -32.7442   -3.8350 C   0  0  0  0  0  0
   -7.0235  -32.6827   -2.3849 C   0  0  0  0  0  0
   -6.0299  -33.6814   -2.1637 O   0  0  0  0  0  0
   -8.1812  -32.8405   -1.4011 C   0  0  0  0  0  0
   -9.0410  -34.0697   -1.6887 C   0  0  0  0  0  0
  -14.3559  -30.0794   -4.4660 C   0  0  0  0  0  0
  -14.6403  -28.8364   -4.0319 N   0  0  0  0  0  0
  -14.3771  -28.5655   -2.7356 C   0  0  0  0  0  0
  -10.7250  -25.9079    0.6486 C   0  0  0  0  0  0
  -11.7484  -22.9217    0.3018 C   0  0  0  0  0  0
  -12.7375  -21.9912   -0.0340 C   0  0  0  0  0  0
  -13.4804  -17.5596   -1.5974 H   0  0  0  0  0  0
  -12.0323  -18.3801   -1.9620 H   0  0  0  0  0  0
  -12.2060  -28.6794    1.7508 H   0  0  0  0  0  0
  -14.8189  -26.4051    0.2607 H   0  0  0  0  0  0
  -10.9328  -34.1051   -5.2582 H   0  0  0  0  0  0
   -5.7449  -33.6530   -1.2369 H   0  0  0  0  0  0
  1  2  1  0  0  0
  1 42  1  0  0  0
  1 43  1  0  0  0
  2  3  2  0  0  0
  2  4  2  0  0  0
  2  5  1  0  0  0
  5  6  2  0  0  0
  5 41  1  0  0  0
  6  7  1  0  0  0
  7  8  2  0  0  0
  8  9  1  0  0  0
  8 40  1  0  0  0
  9 10  1  0  0  0
 10 11  2  0  0  0
 10 39  1  0  0  0
 11 12  1  0  0  0
 12 13  2  0  0  0
 13 14  1  0  0  0
 14 15  1  0  0  0
 14 39  2  0  0  0
 15 16  1  0  0  0
 15 44  1  0  0  0
 16 17  2  0  0  0
 16 18  1  0  0  0
 18 19  1  0  0  0
 18 21  1  0  0  0
 19 20  1  0  0  0
 20 45  1  0  0  0
 21 22  2  0  0  0
 21 38  1  0  0  0
 22 23  1  0  0  0
 23 24  1  0  0  0
 23 36  2  0  0  0
 24 25  1  0  0  0
 25 26  1  0  0  0
 26 27  1  0  0  0
 26 46  1  0  0  0
 27 28  2  0  0  0
 27 29  1  0  0  0
 29 30  1  0  0  0
 29 35  1  0  0  0
 30 31  1  0  0  0
 31 32  1  0  0  0
 32 33  1  0  0  0
 32 34  1  0  0  0
 33 47  1  0  0  0
 34 35  1  0  0  0
 36 37  1  0  0  0
 37 38  2  0  0  0
 40 41  2  0  0  0
M  END
>  <AUTHOR>
    GENERATED BY OPEN BABEL 2.3.2

>  <CHROM.1>
-66.07832289,-43.89488259,-178.77873628,-108.76515613,-179.02530076,62.38872644
61.80141326,115.67021679,-60.21235120,-105.88824940,119.26616716,-65.56071177
68.14974986,-178.85215284,-11.78394988,-27.39710721,-1.34746107,-1.80351826
0.38586597,-2.84160868

>  <COMPND>
    UNNAMED

>  <MASTER>
        0    0    0    0    0    0    0    0   77    0   77    0

>  <Name>
ligands/mol10.pdb

>  <RI>
2.19534e+07

>  <Rbt.Current_Directory>
/home/rodrigo/Desktop/Rodrigo/Proyectos/test_OCONDOR/OCONDOR

>  <Rbt.Executable>
rbdock ($Id: //depot/dev/client3/rdock/2013.1/src/exe/rbdock.cxx#4 $)

>  <Rbt.Library>
libRbt.so (2013.1, Build901 2013/11/27)

>  <Rbt.Parameter_File>
dock.prm

>  <Rbt.Receptor>
rdock.prm

>  <SCORE>
-9.13564

>  <SCORE.INTER>
-9.66412

>  <SCORE.INTER.CONST>
1

>  <SCORE.INTER.POLAR>
0

>  <SCORE.INTER.REPUL>
0

>  <SCORE.INTER.ROT>
13

>  <SCORE.INTER.VDW>
-28.0641

>  <SCORE.INTER.norm>
-0.23571

>  <SCORE.INTRA>
0.528487

>  <SCORE.INTRA.DIHEDRAL>
-1.78091

>  <SCORE.INTRA.DIHEDRAL.0>
15.2397

>  <SCORE.INTRA.POLAR>
0.13644

>  <SCORE.INTRA.POLAR.0>
-0.13644

>  <SCORE.INTRA.REPUL>
0

>  <SCORE.INTRA.REPUL.0>
0

>  <SCORE.INTRA.VDW>
0.955048

>  <SCORE.INTRA.VDW.0>
-4.66274

>  <SCORE.INTRA.norm>
0.0128899

>  <SCORE.RESTR>
0

>  <SCORE.RESTR.CAVITY>
0

>  <SCORE.RESTR.norm>
0

>  <SCORE.SYSTEM>
0

>  <SCORE.SYSTEM.CONST>
0

>  <SCORE.SYSTEM.DIHEDRAL>
0

>  <SCORE.SYSTEM.norm>
0

>  <SCORE.heavy>
41

>  <SCORE.norm>
-0.22282

$$$$
ligands/mol10.pdb
  rDOCK(R)          3D
libRbt.so/2013.1/901 2013/11/27
 47 50  0  0  0  0  0  0  0  0999 V2000
   -4.0201  -29.2386    1.5993 N   0  0  0  0  0  0
   -3.4692  -30.7311    1.0587 S   0  0  0  0  0  0
   -2.1141  -30.5072    0.5933 O   0  0  0  0  0  0
   -3.7819  -31.6544    2.1119 O   0  0  0  0  0  0
   -4.4940  -31.0587   -0.3461 C   0  0  0  0  0  0
   -5.4459  -32.0810   -0.2632 C   0  0  0  0  0  0
   -6.2534  -32.3658   -1.3663 C   0  0  0  0  0  0
   -6.1180  -31.6380   -2.5576 C   0  0  0  0  0  0
   -6.9989  -31.9562   -3.7494 C   0  0  0  0  0  0
   -8.3009  -31.1841   -3.7800 C   0  0  0  0  0  0
   -8.6577  -30.4184   -4.8968 C   0  0  0  0  0  0
   -9.8912  -29.7717   -4.9416 C   0  0  0  0  0  0
  -10.7834  -29.8870   -3.8724 C   0  0  0  0  0  0
  -10.4120  -30.5745   -2.7193 C   0  0  0  0  0  0
  -11.3132  -30.6086   -1.6338 N   0  0  0  0  0  0
  -12.6587  -30.9281   -1.7739 C   0  0  0  0  0  0
  -13.1700  -31.2746   -2.8379 O   0  0  0  0  0  0
  -13.4938  -30.7760   -0.4948 C   0  0  0  0  0  0
  -12.9022  -31.5766    0.6906 C   0  0  0  0  0  0
  -12.4542  -33.3270    0.4017 S   0  0  0  0  0  0
  -13.8495  -29.3404   -0.1495 C   0  0  0  0  0  0
  -14.9576  -28.6860   -0.6987 C   0  0  0  0  0  0
  -15.2585  -27.3717   -0.3274 C   0  0  0  0  0  0
  -16.4445  -26.6379   -0.8980 C   0  0  0  0  0  0
  -16.2270  -26.1376   -2.3317 C   0  0  0  0  0  0
  -15.2040  -25.1128   -2.4166 N   0  0  0  0  0  0
  -13.8615  -25.4297   -2.4298 C   0  0  0  0  0  0
  -13.4524  -26.5848   -2.4702 O   0  0  0  0  0  0
  -12.9343  -24.2146   -2.3605 C   0  0  0  0  0  0
  -13.2303  -23.3299   -1.1383 C   0  0  0  0  0  0
  -12.7201  -23.9286    0.1743 C   0  0  0  0  0  0
  -11.2459  -24.3164    0.1072 C   0  0  0  0  0  0
  -10.4440  -23.1375    0.0789 O   0  0  0  0  0  0
  -10.9438  -25.2083   -1.0953 C   0  0  0  0  0  0
  -11.4592  -24.6265   -2.4101 C   0  0  0  0  0  0
  -14.4150  -26.7543    0.5872 C   0  0  0  0  0  0
  -13.3475  -27.3528    1.1499 N   0  0  0  0  0  0
  -13.0826  -28.6196    0.7651 C   0  0  0  0  0  0
   -9.1746  -31.2256   -2.6811 C   0  0  0  0  0  0
   -5.1452  -30.6252   -2.6286 C   0  0  0  0  0  0
   -4.3349  -30.3339   -1.5262 C   0  0  0  0  0  0
   -4.9465  -29.3490    2.0145 H   0  0  0  0  0  0
   -4.0099  -28.5804    0.8165 H   0  0  0  0  0  0
  -10.9096  -30.6862   -0.7082 H   0  0  0  0  0  0
  -11.3485  -33.0707   -0.3257 H   0  0  0  0  0  0
  -15.4779  -24.1583   -2.2213 H   0  0  0  0  0  0
  -10.6025  -22.6204    0.8841 H   0  0  0  0  0  0
  1  2  1  0  0  0
  1 42  1  0  0  0
  1 43  1  0  0  0
  2  3  2  0  0  0
  2  4  2  0  0  0
  2  5  1  0  0  0
  5  6  2  0  0  0
  5 41  1  0  0  0
  6  7  1  0  0  0
  7  8  2  0  0  0
  8  9  1  0  0  0
  8 40  1  0  0  0
  9 10  1  0  0  0
 10 11  2  0  0  0
 10 39  1  0  0  0
 11 12  1  0  0  0
 12 13  2  0  0  0
 13 14  1  0  0  0
 14 15  1  0  0  0
 14 39  2  0  0  0
 15 16  1  0  0  0
 15 44  1  0  0  0
 16 17  2  0  0  0
 16 18  1  0  0  0
 18 19  1  0  0  0
 18 21  1  0  0  0
 19 20  1  0  0  0
 20 45  1  0  0  0
 21 22  2  0  0  0
 21 38  1  0  0  0
 22 23  1  0  0  0
 23 24  1  0  0  0
 23 36  2  0  0  0
 24 25  1  0  0  0
 25 26  1  0  0  0
 26 27  1  0  0  0
 26 46  1  0  0  0
 27 28  2  0  0  0
 27 29  1  0  0  0
 29 30  1  0  0  0
 29 35  1  0  0  0
 30 31  1  0  0  0
 31 32  1  0  0  0
 32 33  1  0  0  0
 32 34  1  0  0  0
 33 47  1  0  0  0
 34 35  1  0  0  0
 36 37  1  0  0  0
 37 38  2  0  0  0
 40 41  2  0  0  0
M  END
>  <AUTHOR>
    GENERATED BY OPEN BABEL 2.3.2

>  <CHROM.1>
-175.22822119,-110.30892994,89.51964084,125.11785761,48.29767493,-54.53415586
-49.00762622,84.70542201,73.70467485,-76.38562251,-66.03690902,80.47627071
55.42158873,60.26597254,-10.26645711,-28.94314833,-1.08479814,-0.46675742
-0.14333434,0.12855253

>  <COMPND>
    UNNAMED

>  <MASTER>
        0    0    0    0    0    0    0    0   77    0   77    0

>  <Name>
ligands/mol10.pdb

>  <RI>
2.19534e+07

>  <Rbt.Current_Directory>
/home/rodrigo/Desktop/Rodrigo/Proyectos/test_OCONDOR/OCONDOR

>  <Rbt.Executable>
rbdock ($Id: //depot/dev/client3/rdock/2013.1/src/exe/rbdock.cxx#4 $)

>  <Rbt.Library>
libRbt.so (2013.1, Build901 2013/11/27)

>  <Rbt.Parameter_File>
dock.prm

>  <Rbt.Receptor>
rdock.prm

>  <SCORE>
-11.813

>  <SCORE.INTER>
-9.208

>  <SCORE.INTER.CONST>
1

>  <SCORE.INTER.POLAR>
-1.42003

>  <SCORE.INTER.REPUL>
0.000163401

>  <SCORE.INTER.ROT>
13

>  <SCORE.INTER.VDW>
-22.7807

>  <SCORE.INTER.norm>
-0.224585

>  <SCORE.INTRA>
-2.60495

>  <SCORE.INTRA.DIHEDRAL>
-2.43136

>  <SCORE.INTRA.DIHEDRAL.0>
15.2397

>  <SCORE.INTRA.POLAR>
0.13644

>  <SCORE.INTRA.POLAR.0>
-0.13644

>  <SCORE.INTRA.REPUL>
0

>  <SCORE.INTRA.REPUL.0>
0

>  <SCORE.INTRA.VDW>
-1.85317

>  <SCORE.INTRA.VDW.0>
-4.66274

>  <SCORE.INTRA.norm>
-0.0635354

>  <SCORE.RESTR>
0

>  <SCORE.RESTR.CAVITY>
0

>  <SCORE.RESTR.norm>
0

>  <SCORE.SYSTEM>
0

>  <SCORE.SYSTEM.CONST>
0

>  <SCORE.SYSTEM.DIHEDRAL>
0

>  <SCORE.SYSTEM.norm>
0

>  <SCORE.heavy>
41

>  <SCORE.norm>
-0.288121

$$$$
ligands/mol10.pdb
  rDOCK(R)          3D
libRbt.so/2013.1/901 2013/11/27
 47 50  0  0  0  0  0  0  0  0999 V2000
   -7.0329  -32.2541   -4.1038 N   0  0  0  0  0  0
   -6.8078  -33.0394   -2.6356 S   0  0  0  0  0  0
   -6.4852  -34.4136   -2.9679 O   0  0  0  0  0  0
   -5.9194  -32.1963   -1.8875 O   0  0  0  0  0  0
   -8.4189  -33.0061   -1.9049 C   0  0  0  0  0  0
   -9.5388  -33.1305   -2.7346 C   0  0  0  0  0  0
  -10.8195  -33.0906   -2.1792 C   0  0  0  0  0  0
  -10.9939  -32.9249   -0.7974 C   0  0  0  0  0  0
  -12.3885  -32.8817   -0.2051 C   0  0  0  0  0  0
  -13.2969  -31.8478   -0.8362 C   0  0  0  0  0  0
  -14.3484  -32.2311   -1.6777 C   0  0  0  0  0  0
  -15.2212  -31.2751   -2.1935 C   0  0  0  0  0  0
  -15.0551  -29.9259   -1.8701 C   0  0  0  0  0  0
  -13.9665  -29.5168   -1.1034 C   0  0  0  0  0  0
  -13.7939  -28.1378   -0.8576 N   0  0  0  0  0  0
  -12.7441  -27.6267   -0.1034 C   0  0  0  0  0  0
  -11.8370  -28.3175    0.3589 O   0  0  0  0  0  0
  -12.8140  -26.1155    0.1576 C   0  0  0  0  0  0
  -13.6429  -25.7761    1.4200 C   0  0  0  0  0  0
  -15.3997  -26.2864    1.4525 S   0  0  0  0  0  0
  -11.4707  -25.4095    0.0968 C   0  0  0  0  0  0
  -11.1162  -24.5540   -0.9521 C   0  0  0  0  0  0
   -9.8769  -23.9058   -0.9480 C   0  0  0  0  0  0
   -9.4637  -22.9772   -2.0605 C   0  0  0  0  0  0
   -8.3493  -23.5413   -2.9510 C   0  0  0  0  0  0
   -8.7585  -24.7322   -3.6710 N   0  0  0  0  0  0
   -7.8566  -25.7204   -4.0072 C   0  0  0  0  0  0
   -6.6871  -25.7049   -3.6393 O   0  0  0  0  0  0
   -8.4391  -26.8170   -4.9011 C   0  0  0  0  0  0
   -7.6675  -26.9560   -6.2238 C   0  0  0  0  0  0
   -6.3171  -27.6573   -6.0605 C   0  0  0  0  0  0
   -6.4360  -28.9958   -5.3378 C   0  0  0  0  0  0
   -7.0723  -29.9438   -6.1923 O   0  0  0  0  0  0
   -7.1879  -28.8661   -4.0147 C   0  0  0  0  0  0
   -8.5323  -28.1566   -4.1631 C   0  0  0  0  0  0
   -9.0261  -24.1550    0.1212 C   0  0  0  0  0  0
   -9.3343  -24.9592    1.1568 N   0  0  0  0  0  0
  -10.5361  -25.5734    1.1185 C   0  0  0  0  0  0
  -13.0958  -30.4807   -0.5844 C   0  0  0  0  0  0
   -9.8579  -32.7850    0.0193 C   0  0  0  0  0  0
   -8.5725  -32.8264   -0.5311 C   0  0  0  0  0  0
   -7.5615  -31.3939   -3.9510 H   0  0  0  0  0  0
   -7.4945  -32.8955   -4.7532 H   0  0  0  0  0  0
  -14.2743  -27.4999   -1.4804 H   0  0  0  0  0  0
  -15.2335  -27.3065    2.3180 H   0  0  0  0  0  0
   -9.6585  -24.7156   -4.1334 H   0  0  0  0  0  0
   -7.1320  -30.7985   -5.7375 H   0  0  0  0  0  0
  1  2  1  0  0  0
  1 42  1  0  0  0
  1 43  1  0  0  0
  2  3  2  0  0  0
  2  4  2  0  0  0
  2  5  1  0  0  0
  5  6  2  0  0  0
  5 41  1  0  0  0
  6  7  1  0  0  0
  7  8  2  0  0  0
  8  9  1  0  0  0
  8 40  1  0  0  0
  9 10  1  0  0  0
 10 11  2  0  0  0
 10 39  1  0  0  0
 11 12  1  0  0  0
 12 13  2  0  0  0
 13 14  1  0  0  0
 14 15  1  0  0  0
 14 39  2  0  0  0
 15 16  1  0  0  0
 15 44  1  0  0  0
 16 17  2  0  0  0
 16 18  1  0  0  0
 18 19  1  0  0  0
 18 21  1  0  0  0
 19 20  1  0  0  0
 20 45  1  0  0  0
 21 22  2  0  0  0
 21 38  1  0  0  0
 22 23  1  0  0  0
 23 24  1  0  0  0
 23 36  2  0  0  0
 24 25  1  0  0  0
 25 26  1  0  0  0
 26 27  1  0  0  0
 26 46  1  0  0  0
 27 28  2  0  0  0
 27 29  1  0  0  0
 29 30  1  0  0  0
 29 35  1  0  0  0
 30 31  1  0  0  0
 31 32  1  0  0  0
 32 33  1  0  0  0
 32 34  1  0  0  0
 33 47  1  0  0  0
 34 35  1  0  0  0
 36 37  1  0  0  0
 37 38  2  0  0  0
 40 41  2  0  0  0
M  END
>  <AUTHOR>
    GENERATED BY OPEN BABEL 2.3.2

>  <CHROM.1>
160.83392315,35.42422280,-54.26849857,107.71998931,179.84680239,87.24713609
-60.33302325,108.34678380,106.04430637,-109.53488987,63.94288785,-149.63272079
122.07629357,178.94866789,-10.12032102,-28.81473262,-1.88665328,-0.76034347
0.56360322,0.02808281

>  <COMPND>
    UNNAMED

>  <MASTER>
        0    0    0    0    0    0    0    0   77    0   77    0

>  <Name>
ligands/mol10.pdb

>  <RI>
2.19534e+07

>  <Rbt.Current_Directory>
/home/rodrigo/Desktop/Rodrigo/Proyectos/test_OCONDOR/OCONDOR

>  <Rbt.Executable>
rbdock ($Id: //depot/dev/client3/rdock/2013.1/src/exe/rbdock.cxx#4 $)

>  <Rbt.Library>
libRbt.so (2013.1, Build901 2013/11/27)

>  <Rbt.Parameter_File>
dock.prm

>  <Rbt.Receptor>
rdock.prm

>  <SCORE>
-8.98684

>  <SCORE.INTER>
-4.59534

>  <SCORE.INTER.CONST>
1

>  <SCORE.INTER.POLAR>
-0.844591

>  <SCORE.INTER.REPUL>
0.012549

>  <SCORE.INTER.ROT>
13

>  <SCORE.INTER.VDW>
-20.1865

>  <SCORE.INTER.norm>
-0.112081

>  <SCORE.INTRA>
-4.3915

>  <SCORE.INTRA.DIHEDRAL>
-1.46917

>  <SCORE.INTRA.DIHEDRAL.0>
15.2397

>  <SCORE.INTRA.POLAR>
-0.86356

>  <SCORE.INTRA.POLAR.0>
-0.13644

>  <SCORE.INTRA.REPUL>
0

>  <SCORE.INTRA.REPUL.0>
0

>  <SCORE.INTRA.VDW>
-0.72081

>  <SCORE.INTRA.VDW.0>
-4.66274

>  <SCORE.INTRA.norm>
-0.10711

>  <SCORE.RESTR>
0

>  <SCORE.RESTR.CAVITY>
0

>  <SCORE.RESTR.norm>
0

>  <SCORE.SYSTEM>
0

>  <SCORE.SYSTEM.CONST>
0

>  <SCORE.SYSTEM.DIHEDRAL>
0

>  <SCORE.SYSTEM.norm>
0

>  <SCORE.heavy>
41

>  <SCORE.norm>
-0.219191

$$$$
