ligands/mol3.pdb
  rDOCK(R)          3D
libRbt.so/2013.1/901 2013/11/27
 45 48  0  0  0  0  0  0  0  0999 V2000
   -5.7142  -33.0862    0.8901 N   0  0  0  0  0  0
   -6.2613  -34.6513    0.5537 S   0  0  0  0  0  0
   -5.1493  -35.4366    0.0650 O   0  0  0  0  0  0
   -7.0303  -35.0673    1.7069 O   0  0  0  0  0  0
   -7.3626  -34.3822   -0.8056 C   0  0  0  0  0  0
   -8.1339  -33.2245   -0.8657 C   0  0  0  0  0  0
   -8.9816  -33.0182   -1.9560 C   0  0  0  0  0  0
   -9.1737  -33.9992   -2.9402 C   0  0  0  0  0  0
  -10.2171  -33.8819   -4.0625 C   0  0  0  0  0  0
  -10.8761  -32.5258   -4.2988 C   0  0  0  0  0  0
  -10.3425  -31.5920   -5.1987 C   0  0  0  0  0  0
  -11.0613  -30.4625   -5.5756 C   0  0  0  0  0  0
  -12.2492  -30.1514   -4.9285 C   0  0  0  0  0  0
  -12.6953  -30.9386   -3.8679 C   0  0  0  0  0  0
  -13.7801  -30.5572   -3.0455 N   0  0  0  0  0  0
  -14.2513  -31.2302   -1.9357 C   0  0  0  0  0  0
  -13.7866  -32.2589   -1.4414 O   0  0  0  0  0  0
  -15.3920  -30.6068   -1.4409 N   0  0  0  0  0  0
  -15.2989  -29.2925   -0.9399 C   0  0  0  0  0  0
  -15.7691  -28.2468   -1.7239 C   0  0  0  0  0  0
  -15.6658  -26.9397   -1.2518 C   0  0  0  0  0  0
  -15.0766  -26.7162   -0.0081 C   0  0  0  0  0  0
  -14.9741  -25.3115    0.5350 C   0  0  0  0  0  0
  -14.6747  -24.2723   -0.5487 C   0  0  0  0  0  0
  -14.4788  -22.9390   -0.0067 N   0  0  0  0  0  0
  -13.2413  -22.3245   -0.0761 C   0  0  0  0  0  0
  -12.2534  -22.8571   -0.5677 O   0  0  0  0  0  0
  -13.2239  -20.9275    0.5447 C   0  0  0  0  0  0
  -11.7943  -20.3927    0.6717 C   0  0  0  0  0  0
  -11.2408  -19.8234   -0.6370 C   0  0  0  0  0  0
  -12.1723  -18.7890   -1.2626 C   0  0  0  0  0  0
  -12.2402  -17.6404   -0.4199 O   0  0  0  0  0  0
  -13.5805  -19.3383   -1.4562 C   0  0  0  0  0  0
  -14.1620  -19.9583   -0.1854 C   0  0  0  0  0  0
  -14.5991  -27.7285    0.7556 N   0  0  0  0  0  0
  -14.7286  -28.9885    0.2883 C   0  0  0  0  0  0
  -12.0268  -32.1453   -3.5830 C   0  0  0  0  0  0
   -8.3541  -35.1410   -2.8730 C   0  0  0  0  0  0
   -7.4465  -35.3283   -1.8216 C   0  0  0  0  0  0
   -5.2257  -32.6223    0.1197 H   0  0  0  0  0  0
   -5.1775  -33.0625    1.7645 H   0  0  0  0  0  0
  -14.4033  -29.8625   -3.4338 H   0  0  0  0  0  0
  -16.1442  -30.7052   -2.1125 H   0  0  0  0  0  0
  -15.1802  -22.5488    0.6086 H   0  0  0  0  0  0
  -12.5595  -17.9400    0.4489 H   0  0  0  0  0  0
  1  2  1  0  0  0
  1 40  1  0  0  0
  1 41  1  0  0  0
  2  3  2  0  0  0
  2  4  2  0  0  0
  2  5  1  0  0  0
  5  6  2  0  0  0
  5 39  1  0  0  0
  6  7  1  0  0  0
  7  8  2  0  0  0
  8  9  1  0  0  0
  8 38  1  0  0  0
  9 10  1  0  0  0
 10 11  2  0  0  0
 10 37  1  0  0  0
 11 12  1  0  0  0
 12 13  2  0  0  0
 13 14  1  0  0  0
 14 15  1  0  0  0
 14 37  2  0  0  0
 15 16  1  0  0  0
 15 42  1  0  0  0
 16 17  2  0  0  0
 16 18  1  0  0  0
 18 19  1  0  0  0
 18 43  1  0  0  0
 19 20  2  0  0  0
 19 36  1  0  0  0
 20 21  1  0  0  0
 21 22  2  0  0  0
 22 23  1  0  0  0
 22 35  1  0  0  0
 23 24  1  0  0  0
 24 25  1  0  0  0
 25 26  1  0  0  0
 25 44  1  0  0  0
 26 27  2  0  0  0
 26 28  1  0  0  0
 28 29  1  0  0  0
 28 34  1  0  0  0
 29 30  1  0  0  0
 30 31  1  0  0  0
 31 32  1  0  0  0
 31 33  1  0  0  0
 32 45  1  0  0  0
 33 34  1  0  0  0
 35 36  2  0  0  0
 38 39  2  0  0  0
M  END
>  <AUTHOR>
    GENERATED BY OPEN BABEL 2.3.2

>  <CHROM.1>
53.41123590,-35.24897679,13.05557755,90.87318761,-176.46615571,-63.74347136
103.56496993,-37.32305287,-175.69293818,113.42142646,169.80561386,-58.35579636
-11.55843713,-28.63758410,-1.24511669,-1.15901976,-0.35099509,0.22511594

>  <COMPND>
    UNNAMED

>  <MASTER>
        0    0    0    0    0    0    0    0   72    0   72    0

>  <Name>
ligands/mol3.pdb

>  <RI>
2.50828e+07

>  <Rbt.Current_Directory>
/home/rodrigo/Desktop/Rodrigo/Proyectos/test_OCONDOR/OCONDOR

>  <Rbt.Executable>
rbdock ($Id: //depot/dev/client3/rdock/2013.1/src/exe/rbdock.cxx#4 $)

>  <Rbt.Library>
libRbt.so (2013.1, Build901 2013/11/27)

>  <Rbt.Parameter_File>
dock.prm

>  <Rbt.Receptor>
rdock.prm

>  <SCORE>
-16.0896

>  <SCORE.INTER>
-14.8788

>  <SCORE.INTER.CONST>
1

>  <SCORE.INTER.POLAR>
-0.856453

>  <SCORE.INTER.REPUL>
0.100382

>  <SCORE.INTER.ROT>
11

>  <SCORE.INTER.VDW>
-28.8687

>  <SCORE.INTER.norm>
-0.381507

>  <SCORE.INTRA>
-1.2108

>  <SCORE.INTRA.DIHEDRAL>
-3.25215

>  <SCORE.INTRA.DIHEDRAL.0>
10.441

>  <SCORE.INTRA.POLAR>
0

>  <SCORE.INTRA.POLAR.0>
0

>  <SCORE.INTRA.REPUL>
0

>  <SCORE.INTRA.REPUL.0>
0

>  <SCORE.INTRA.VDW>
0.415279

>  <SCORE.INTRA.VDW.0>
-1.98888

>  <SCORE.INTRA.norm>
-0.0310461

>  <SCORE.RESTR>
0

>  <SCORE.RESTR.CAVITY>
0

>  <SCORE.RESTR.norm>
0

>  <SCORE.SYSTEM>
0

>  <SCORE.SYSTEM.CONST>
0

>  <SCORE.SYSTEM.DIHEDRAL>
0

>  <SCORE.SYSTEM.norm>
0

>  <SCORE.heavy>
39

>  <SCORE.norm>
-0.412553

$$$$
ligands/mol3.pdb
  rDOCK(R)          3D
libRbt.so/2013.1/901 2013/11/27
 45 48  0  0  0  0  0  0  0  0999 V2000
   -5.9626  -29.3631   -2.8804 N   0  0  0  0  0  0
   -6.6320  -29.1965   -4.4251 S   0  0  0  0  0  0
   -7.1018  -27.8377   -4.5833 O   0  0  0  0  0  0
   -5.6768  -29.7769   -5.3443 O   0  0  0  0  0  0
   -8.0546  -30.2458   -4.3352 C   0  0  0  0  0  0
   -8.0703  -31.4663   -5.0054 C   0  0  0  0  0  0
   -9.1925  -32.2914   -4.9062 C   0  0  0  0  0  0
  -10.3599  -31.8772   -4.2478 C   0  0  0  0  0  0
  -11.6695  -32.6815   -4.2566 C   0  0  0  0  0  0
  -12.9314  -32.0151   -3.7157 C   0  0  0  0  0  0
  -14.0788  -31.8547   -4.5058 C   0  0  0  0  0  0
  -15.2884  -31.4560   -3.9470 C   0  0  0  0  0  0
  -15.3345  -31.0389   -2.6239 C   0  0  0  0  0  0
  -14.1632  -30.9691   -1.8710 C   0  0  0  0  0  0
  -14.1183  -30.3627   -0.5947 N   0  0  0  0  0  0
  -14.9956  -29.4194   -0.0975 C   0  0  0  0  0  0
  -15.9948  -28.9686   -0.6605 O   0  0  0  0  0  0
  -14.5776  -28.9839    1.1556 N   0  0  0  0  0  0
  -13.5625  -28.0100    1.2454 C   0  0  0  0  0  0
  -13.7382  -26.9443    2.1186 C   0  0  0  0  0  0
  -12.7532  -25.9623    2.2041 C   0  0  0  0  0  0
  -11.6220  -26.0692    1.3960 C   0  0  0  0  0  0
  -10.5306  -25.0304    1.4874 C   0  0  0  0  0  0
  -10.5741  -24.0157    0.3416 C   0  0  0  0  0  0
  -11.8271  -23.2829    0.2904 N   0  0  0  0  0  0
  -11.8349  -21.9115    0.1083 C   0  0  0  0  0  0
  -10.8142  -21.2423    0.0007 O   0  0  0  0  0  0
  -13.2414  -21.3128    0.0811 C   0  0  0  0  0  0
  -13.1942  -19.7851   -0.0175 C   0  0  0  0  0  0
  -12.9447  -19.2761   -1.4394 C   0  0  0  0  0  0
  -13.9189  -19.8728   -2.4512 C   0  0  0  0  0  0
  -15.2374  -19.4055   -2.1731 O   0  0  0  0  0  0
  -13.9197  -21.3961   -2.4067 C   0  0  0  0  0  0
  -14.1224  -21.9544   -0.9980 C   0  0  0  0  0  0
  -11.4504  -27.0958    0.5285 N   0  0  0  0  0  0
  -12.4071  -28.0470    0.4773 C   0  0  0  0  0  0
  -12.9721  -31.4949   -2.4084 C   0  0  0  0  0  0
  -10.3010  -30.6569   -3.5496 C   0  0  0  0  0  0
   -9.1549  -29.8511   -3.5816 C   0  0  0  0  0  0
   -5.2387  -28.6791   -2.6451 H   0  0  0  0  0  0
   -5.6584  -30.3286   -2.7118 H   0  0  0  0  0  0
  -13.2451  -30.4555   -0.0941 H   0  0  0  0  0  0
  -15.3885  -28.7401    1.7119 H   0  0  0  0  0  0
  -12.6763  -23.7356    0.6014 H   0  0  0  0  0  0
  -15.2246  -18.4372   -2.2666 H   0  0  0  0  0  0
  1  2  1  0  0  0
  1 40  1  0  0  0
  1 41  1  0  0  0
  2  3  2  0  0  0
  2  4  2  0  0  0
  2  5  1  0  0  0
  5  6  2  0  0  0
  5 39  1  0  0  0
  6  7  1  0  0  0
  7  8  2  0  0  0
  8  9  1  0  0  0
  8 38  1  0  0  0
  9 10  1  0  0  0
 10 11  2  0  0  0
 10 37  1  0  0  0
 11 12  1  0  0  0
 12 13  2  0  0  0
 13 14  1  0  0  0
 14 15  1  0  0  0
 14 37  2  0  0  0
 15 16  1  0  0  0
 15 42  1  0  0  0
 16 17  2  0  0  0
 16 18  1  0  0  0
 18 19  1  0  0  0
 18 43  1  0  0  0
 19 20  2  0  0  0
 19 36  1  0  0  0
 20 21  1  0  0  0
 21 22  2  0  0  0
 22 23  1  0  0  0
 22 35  1  0  0  0
 23 24  1  0  0  0
 24 25  1  0  0  0
 25 26  1  0  0  0
 25 44  1  0  0  0
 26 27  2  0  0  0
 26 28  1  0  0  0
 28 29  1  0  0  0
 28 34  1  0  0  0
 29 30  1  0  0  0
 30 31  1  0  0  0
 31 32  1  0  0  0
 31 33  1  0  0  0
 32 45  1  0  0  0
 33 34  1  0  0  0
 35 36  2  0  0  0
 38 39  2  0  0  0
M  END
>  <AUTHOR>
    GENERATED BY OPEN BABEL 2.3.2

>  <CHROM.1>
-53.60153130,-107.24312139,-169.41634821,121.48169838,-22.48704012,80.64381249
134.24456918,-101.94765797,59.67233481,134.78304044,175.76167048,61.34454532
-11.69056149,-27.18858600,-1.77442447,-1.21805694,0.41766104,0.21074422

>  <COMPND>
    UNNAMED

>  <MASTER>
        0    0    0    0    0    0    0    0   72    0   72    0

>  <Name>
ligands/mol3.pdb

>  <RI>
2.50828e+07

>  <Rbt.Current_Directory>
/home/rodrigo/Desktop/Rodrigo/Proyectos/test_OCONDOR/OCONDOR

>  <Rbt.Executable>
rbdock ($Id: //depot/dev/client3/rdock/2013.1/src/exe/rbdock.cxx#4 $)

>  <Rbt.Library>
libRbt.so (2013.1, Build901 2013/11/27)

>  <Rbt.Parameter_File>
dock.prm

>  <Rbt.Receptor>
rdock.prm

>  <SCORE>
-15.6325

>  <SCORE.INTER>
-13.4926

>  <SCORE.INTER.CONST>
1

>  <SCORE.INTER.POLAR>
-1.0159

>  <SCORE.INTER.REPUL>
0

>  <SCORE.INTER.ROT>
11

>  <SCORE.INTER.VDW>
-26.4386

>  <SCORE.INTER.norm>
-0.345964

>  <SCORE.INTRA>
-2.13986

>  <SCORE.INTRA.DIHEDRAL>
-2.65783

>  <SCORE.INTRA.DIHEDRAL.0>
10.441

>  <SCORE.INTRA.POLAR>
0

>  <SCORE.INTRA.POLAR.0>
0

>  <SCORE.INTRA.REPUL>
0

>  <SCORE.INTRA.REPUL.0>
0

>  <SCORE.INTRA.VDW>
-0.810947

>  <SCORE.INTRA.VDW.0>
-1.98888

>  <SCORE.INTRA.norm>
-0.0548683

>  <SCORE.RESTR>
0

>  <SCORE.RESTR.CAVITY>
0

>  <SCORE.RESTR.norm>
0

>  <SCORE.SYSTEM>
0

>  <SCORE.SYSTEM.CONST>
0

>  <SCORE.SYSTEM.DIHEDRAL>
0

>  <SCORE.SYSTEM.norm>
0

>  <SCORE.heavy>
39

>  <SCORE.norm>
-0.400833

$$$$
ligands/mol3.pdb
  rDOCK(R)          3D
libRbt.so/2013.1/901 2013/11/27
 45 48  0  0  0  0  0  0  0  0999 V2000
  -17.9689  -20.7405   -1.8637 N   0  0  0  0  0  0
  -17.8252  -21.8865   -0.6276 S   0  0  0  0  0  0
  -18.0386  -21.2282    0.6426 O   0  0  0  0  0  0
  -18.6257  -23.0216   -1.0336 O   0  0  0  0  0  0
  -16.1135  -22.3275   -0.7190 C   0  0  0  0  0  0
  -15.7404  -23.6343   -1.0224 C   0  0  0  0  0  0
  -14.3854  -23.9600   -1.1116 C   0  0  0  0  0  0
  -13.3796  -23.0379   -0.7862 C   0  0  0  0  0  0
  -11.8881  -23.4011   -0.7104 C   0  0  0  0  0  0
  -11.1976  -23.8917   -1.9799 C   0  0  0  0  0  0
  -11.0171  -23.0571   -3.0923 C   0  0  0  0  0  0
  -10.1964  -23.4339   -4.1501 C   0  0  0  0  0  0
   -9.6820  -24.7221   -4.2010 C   0  0  0  0  0  0
  -10.0288  -25.6532   -3.2230 C   0  0  0  0  0  0
   -9.7036  -27.0246   -3.3337 N   0  0  0  0  0  0
   -9.0798  -27.6417   -4.3998 C   0  0  0  0  0  0
   -8.6598  -27.1020   -5.4250 O   0  0  0  0  0  0
   -9.0148  -29.0155   -4.1924 N   0  0  0  0  0  0
  -10.2093  -29.7602   -4.1181 C   0  0  0  0  0  0
  -10.4970  -30.4408   -2.9420 C   0  0  0  0  0  0
  -11.6639  -31.1982   -2.8596 C   0  0  0  0  0  0
  -12.5049  -31.2646   -3.9696 C   0  0  0  0  0  0
  -13.7861  -32.0596   -3.8970 C   0  0  0  0  0  0
  -14.6483  -31.6941   -2.6857 C   0  0  0  0  0  0
  -14.7212  -30.2606   -2.4629 N   0  0  0  0  0  0
  -14.2711  -29.7076   -1.2774 C   0  0  0  0  0  0
  -13.8127  -30.3736   -0.3568 O   0  0  0  0  0  0
  -14.4273  -28.1878   -1.2211 C   0  0  0  0  0  0
  -15.8775  -27.7876   -0.9337 C   0  0  0  0  0  0
  -16.2521  -27.8858    0.5472 C   0  0  0  0  0  0
  -15.2748  -27.1341    1.4466 C   0  0  0  0  0  0
  -15.3707  -25.7350    1.1866 O   0  0  0  0  0  0
  -13.8355  -27.5778    1.2148 C   0  0  0  0  0  0
  -13.4260  -27.5387   -0.2576 C   0  0  0  0  0  0
  -12.2235  -30.6184   -5.1268 N   0  0  0  0  0  0
  -11.0987  -29.8734   -5.1776 C   0  0  0  0  0  0
  -10.7540  -25.2225   -2.0949 C   0  0  0  0  0  0
  -13.7853  -21.7171   -0.5200 C   0  0  0  0  0  0
  -15.1400  -21.3591   -0.4973 C   0  0  0  0  0  0
  -18.8820  -20.2826   -1.9269 H   0  0  0  0  0  0
  -17.6620  -21.1272   -2.7634 H   0  0  0  0  0  0
  -10.1700  -27.6411   -2.6825 H   0  0  0  0  0  0
   -8.3542  -29.4208   -4.8450 H   0  0  0  0  0  0
  -15.2930  -29.6947   -3.0757 H   0  0  0  0  0  0
  -14.9098  -25.2762    1.9102 H   0  0  0  0  0  0
  1  2  1  0  0  0
  1 40  1  0  0  0
  1 41  1  0  0  0
  2  3  2  0  0  0
  2  4  2  0  0  0
  2  5  1  0  0  0
  5  6  2  0  0  0
  5 39  1  0  0  0
  6  7  1  0  0  0
  7  8  2  0  0  0
  8  9  1  0  0  0
  8 38  1  0  0  0
  9 10  1  0  0  0
 10 11  2  0  0  0
 10 37  1  0  0  0
 11 12  1  0  0  0
 12 13  2  0  0  0
 13 14  1  0  0  0
 14 15  1  0  0  0
 14 37  2  0  0  0
 15 16  1  0  0  0
 15 42  1  0  0  0
 16 17  2  0  0  0
 16 18  1  0  0  0
 18 19  1  0  0  0
 18 43  1  0  0  0
 19 20  2  0  0  0
 19 36  1  0  0  0
 20 21  1  0  0  0
 21 22  2  0  0  0
 22 23  1  0  0  0
 22 35  1  0  0  0
 23 24  1  0  0  0
 24 25  1  0  0  0
 25 26  1  0  0  0
 25 44  1  0  0  0
 26 27  2  0  0  0
 26 28  1  0  0  0
 28 29  1  0  0  0
 28 34  1  0  0  0
 29 30  1  0  0  0
 30 31  1  0  0  0
 31 32  1  0  0  0
 31 33  1  0  0  0
 32 45  1  0  0  0
 33 34  1  0  0  0
 35 36  2  0  0  0
 38 39  2  0  0  0
M  END
>  <AUTHOR>
    GENERATED BY OPEN BABEL 2.3.2

>  <CHROM.1>
-60.90561458,-117.66405928,62.29156532,65.98634130,-3.14704499,64.04538885
-118.56234254,51.55597373,43.13032050,-119.74085057,77.40600608,166.40682618
-13.47320640,-26.30175495,-1.90096672,-2.25405578,-0.49124090,-3.09157648

>  <COMPND>
    UNNAMED

>  <MASTER>
        0    0    0    0    0    0    0    0   72    0   72    0

>  <Name>
ligands/mol3.pdb

>  <RI>
2.50828e+07

>  <Rbt.Current_Directory>
/home/rodrigo/Desktop/Rodrigo/Proyectos/test_OCONDOR/OCONDOR

>  <Rbt.Executable>
rbdock ($Id: //depot/dev/client3/rdock/2013.1/src/exe/rbdock.cxx#4 $)

>  <Rbt.Library>
libRbt.so (2013.1, Build901 2013/11/27)

>  <Rbt.Parameter_File>
dock.prm

>  <Rbt.Receptor>
rdock.prm

>  <SCORE>
-17.6733

>  <SCORE.INTER>
-12.9682

>  <SCORE.INTER.CONST>
1

>  <SCORE.INTER.POLAR>
-1.42871

>  <SCORE.INTER.REPUL>
0

>  <SCORE.INTER.ROT>
11

>  <SCORE.INTER.VDW>
-24.5106

>  <SCORE.INTER.norm>
-0.332518

>  <SCORE.INTRA>
-4.70512

>  <SCORE.INTRA.DIHEDRAL>
-0.900223

>  <SCORE.INTRA.DIHEDRAL.0>
10.441

>  <SCORE.INTRA.POLAR>
0

>  <SCORE.INTRA.POLAR.0>
0

>  <SCORE.INTRA.REPUL>
0

>  <SCORE.INTRA.REPUL.0>
0

>  <SCORE.INTRA.VDW>
-4.25501

>  <SCORE.INTRA.VDW.0>
-1.98888

>  <SCORE.INTRA.norm>
-0.120644

>  <SCORE.RESTR>
0

>  <SCORE.RESTR.CAVITY>
0

>  <SCORE.RESTR.norm>
0

>  <SCORE.SYSTEM>
0

>  <SCORE.SYSTEM.CONST>
0

>  <SCORE.SYSTEM.DIHEDRAL>
0

>  <SCORE.SYSTEM.norm>
0

>  <SCORE.heavy>
39

>  <SCORE.norm>
-0.453162

$$$$
ligands/mol3.pdb
  rDOCK(R)          3D
libRbt.so/2013.1/901 2013/11/27
 45 48  0  0  0  0  0  0  0  0999 V2000
   -6.1082  -37.2223   -5.7797 N   0  0  0  0  0  0
   -5.5875  -37.7728   -4.2671 S   0  0  0  0  0  0
   -6.3473  -38.9524   -3.9159 O   0  0  0  0  0  0
   -4.1415  -37.7944   -4.3206 O   0  0  0  0  0  0
   -6.1040  -36.4656   -3.1914 C   0  0  0  0  0  0
   -7.4292  -36.3837   -2.7719 C   0  0  0  0  0  0
   -7.8148  -35.3583   -1.9060 C   0  0  0  0  0  0
   -6.9338  -34.3310   -1.5366 C   0  0  0  0  0  0
   -7.3610  -33.0988   -0.7234 C   0  0  0  0  0  0
   -8.4683  -32.2105   -1.2836 C   0  0  0  0  0  0
   -8.3973  -31.6669   -2.5743 C   0  0  0  0  0  0
   -9.4991  -31.0508   -3.1582 C   0  0  0  0  0  0
  -10.6369  -30.8077   -2.4012 C   0  0  0  0  0  0
  -10.6578  -31.1318   -1.0454 C   0  0  0  0  0  0
  -11.7031  -30.7240   -0.1853 N   0  0  0  0  0  0
  -12.8610  -30.0650   -0.5480 C   0  0  0  0  0  0
  -13.2079  -29.7513   -1.6881 O   0  0  0  0  0  0
  -13.6071  -29.7425    0.5806 N   0  0  0  0  0  0
  -14.1950  -28.4650    0.6784 C   0  0  0  0  0  0
  -13.4928  -27.4573    1.3270 C   0  0  0  0  0  0
  -14.0688  -26.1943    1.4500 C   0  0  0  0  0  0
  -15.3450  -25.9813    0.9306 C   0  0  0  0  0  0
  -15.9805  -24.6157    1.0310 C   0  0  0  0  0  0
  -15.9343  -23.8370   -0.2864 C   0  0  0  0  0  0
  -14.6131  -23.8362   -0.8900 N   0  0  0  0  0  0
  -14.3061  -24.7123   -1.9157 C   0  0  0  0  0  0
  -15.0996  -25.5355   -2.3561 O   0  0  0  0  0  0
  -12.8720  -24.5682   -2.4254 C   0  0  0  0  0  0
  -12.5380  -25.6471   -3.4600 C   0  0  0  0  0  0
  -13.0723  -25.3321   -4.8595 C   0  0  0  0  0  0
  -12.6579  -23.9451   -5.3428 C   0  0  0  0  0  0
  -11.2441  -23.9095   -5.5269 O   0  0  0  0  0  0
  -13.0499  -22.8583   -4.3491 C   0  0  0  0  0  0
  -12.5755  -23.1488   -2.9251 C   0  0  0  0  0  0
  -16.0445  -26.9631    0.3120 N   0  0  0  0  0  0
  -15.4591  -28.1730    0.1853 C   0  0  0  0  0  0
   -9.5872  -31.8678   -0.5013 C   0  0  0  0  0  0
   -5.5936  -34.4608   -1.9451 C   0  0  0  0  0  0
   -5.1765  -35.5248   -2.7563 C   0  0  0  0  0  0
   -7.0846  -36.9182   -5.8182 H   0  0  0  0  0  0
   -5.8793  -37.8979   -6.5175 H   0  0  0  0  0  0
  -11.4806  -30.7081    0.8005 H   0  0  0  0  0  0
  -14.2744  -30.4828    0.7625 H   0  0  0  0  0  0
  -13.8577  -23.3528   -0.4227 H   0  0  0  0  0  0
  -11.0343  -24.5162   -6.2580 H   0  0  0  0  0  0
  1  2  1  0  0  0
  1 40  1  0  0  0
  1 41  1  0  0  0
  2  3  2  0  0  0
  2  4  2  0  0  0
  2  5  1  0  0  0
  5  6  2  0  0  0
  5 39  1  0  0  0
  6  7  1  0  0  0
  7  8  2  0  0  0
  8  9  1  0  0  0
  8 38  1  0  0  0
  9 10  1  0  0  0
 10 11  2  0  0  0
 10 37  1  0  0  0
 11 12  1  0  0  0
 12 13  2  0  0  0
 13 14  1  0  0  0
 14 15  1  0  0  0
 14 37  2  0  0  0
 15 16  1  0  0  0
 15 42  1  0  0  0
 16 17  2  0  0  0
 16 18  1  0  0  0
 18 19  1  0  0  0
 18 43  1  0  0  0
 19 20  2  0  0  0
 19 36  1  0  0  0
 20 21  1  0  0  0
 21 22  2  0  0  0
 22 23  1  0  0  0
 22 35  1  0  0  0
 23 24  1  0  0  0
 24 25  1  0  0  0
 25 26  1  0  0  0
 25 44  1  0  0  0
 26 27  2  0  0  0
 26 28  1  0  0  0
 28 29  1  0  0  0
 28 34  1  0  0  0
 29 30  1  0  0  0
 30 31  1  0  0  0
 31 32  1  0  0  0
 31 33  1  0  0  0
 32 45  1  0  0  0
 33 34  1  0  0  0
 35 36  2  0  0  0
 38 39  2  0  0  0
M  END
>  <AUTHOR>
    GENERATED BY OPEN BABEL 2.3.2

>  <CHROM.1>
63.27470538,79.74171434,-58.12601410,-53.99083186,5.18887296,136.58805137
-93.08852821,102.74365801,-48.73330951,99.14554739,174.39094743,65.86740839
-10.83599732,-30.04203287,-2.05448216,-0.58287735,0.81394133,-0.67065244

>  <COMPND>
    UNNAMED

>  <MASTER>
        0    0    0    0    0    0    0    0   72    0   72    0

>  <Name>
ligands/mol3.pdb

>  <RI>
2.50828e+07

>  <Rbt.Current_Directory>
/home/rodrigo/Desktop/Rodrigo/Proyectos/test_OCONDOR/OCONDOR

>  <Rbt.Executable>
rbdock ($Id: //depot/dev/client3/rdock/2013.1/src/exe/rbdock.cxx#4 $)

>  <Rbt.Library>
libRbt.so (2013.1, Build901 2013/11/27)

>  <Rbt.Parameter_File>
dock.prm

>  <Rbt.Receptor>
rdock.prm

>  <SCORE>
-15.9856

>  <SCORE.INTER>
-11.4939

>  <SCORE.INTER.CONST>
1

>  <SCORE.INTER.POLAR>
-1.64853

>  <SCORE.INTER.REPUL>
0

>  <SCORE.INTER.ROT>
11

>  <SCORE.INTER.VDW>
-22.2889

>  <SCORE.INTER.norm>
-0.294715

>  <SCORE.INTRA>
-4.49172

>  <SCORE.INTRA.DIHEDRAL>
-3.01788

>  <SCORE.INTRA.DIHEDRAL.0>
10.441

>  <SCORE.INTRA.POLAR>
0

>  <SCORE.INTRA.POLAR.0>
0

>  <SCORE.INTRA.REPUL>
0

>  <SCORE.INTRA.REPUL.0>
0

>  <SCORE.INTRA.VDW>
-2.98278

>  <SCORE.INTRA.VDW.0>
-1.98888

>  <SCORE.INTRA.norm>
-0.115172

>  <SCORE.RESTR>
0

>  <SCORE.RESTR.CAVITY>
0

>  <SCORE.RESTR.norm>
0

>  <SCORE.SYSTEM>
0

>  <SCORE.SYSTEM.CONST>
0

>  <SCORE.SYSTEM.DIHEDRAL>
0

>  <SCORE.SYSTEM.norm>
0

>  <SCORE.heavy>
39

>  <SCORE.norm>
-0.409888

$$$$
ligands/mol3.pdb
  rDOCK(R)          3D
libRbt.so/2013.1/901 2013/11/27
 45 48  0  0  0  0  0  0  0  0999 V2000
   -6.4253  -37.6630   -6.2467 N   0  0  0  0  0  0
   -5.4078  -36.3300   -6.0230 S   0  0  0  0  0  0
   -5.0758  -36.2302   -4.6187 O   0  0  0  0  0  0
   -4.3799  -36.4315   -7.0365 O   0  0  0  0  0  0
   -6.4725  -34.9721   -6.4173 C   0  0  0  0  0  0
   -6.3470  -33.7620   -5.7401 C   0  0  0  0  0  0
   -7.1809  -32.6942   -6.0787 C   0  0  0  0  0  0
   -8.2279  -32.8366   -7.0014 C   0  0  0  0  0  0
   -9.2685  -31.7402   -7.2793 C   0  0  0  0  0  0
  -10.6838  -31.9330   -6.7417 C   0  0  0  0  0  0
  -11.4525  -33.0584   -7.0719 C   0  0  0  0  0  0
  -12.6419  -33.3385   -6.4076 C   0  0  0  0  0  0
  -13.1768  -32.4092   -5.5262 C   0  0  0  0  0  0
  -12.5526  -31.1758   -5.3459 C   0  0  0  0  0  0
  -13.1557  -30.1200   -4.6246 N   0  0  0  0  0  0
  -14.4417  -30.0922   -4.1224 C   0  0  0  0  0  0
  -15.2776  -30.9960   -4.1780 O   0  0  0  0  0  0
  -14.7127  -28.8509   -3.5567 N   0  0  0  0  0  0
  -14.2339  -28.5619   -2.2627 C   0  0  0  0  0  0
  -14.7544  -29.2699   -1.1871 C   0  0  0  0  0  0
  -14.3064  -28.9820    0.1007 C   0  0  0  0  0  0
  -13.3564  -27.9767    0.2755 C   0  0  0  0  0  0
  -12.8385  -27.6623    1.6581 C   0  0  0  0  0  0
  -12.3025  -26.2338    1.7848 C   0  0  0  0  0  0
  -13.2892  -25.2316    1.4214 N   0  0  0  0  0  0
  -13.0284  -24.3173    0.4165 C   0  0  0  0  0  0
  -11.9710  -24.2818   -0.2016 O   0  0  0  0  0  0
  -14.1794  -23.3410    0.1732 C   0  0  0  0  0  0
  -13.6709  -22.0099   -0.3884 C   0  0  0  0  0  0
  -13.3849  -22.0549   -1.8914 C   0  0  0  0  0  0
  -14.5693  -22.5856   -2.6943 C   0  0  0  0  0  0
  -15.6543  -21.6643   -2.6047 O   0  0  0  0  0  0
  -15.0364  -23.9435   -2.1844 C   0  0  0  0  0  0
  -15.2944  -23.9617   -0.6777 C   0  0  0  0  0  0
  -12.8561  -27.2688   -0.7660 N   0  0  0  0  0  0
  -13.2884  -27.5786   -2.0069 C   0  0  0  0  0  0
  -11.2871  -30.9582   -5.9250 C   0  0  0  0  0  0
   -8.3062  -34.0579   -7.6958 C   0  0  0  0  0  0
   -7.4295  -35.1150   -7.4164 C   0  0  0  0  0  0
   -6.5166  -37.9816   -7.2149 H   0  0  0  0  0  0
   -7.3354  -37.5126   -5.7968 H   0  0  0  0  0  0
  -12.6879  -29.2258   -4.6804 H   0  0  0  0  0  0
  -14.4770  -28.1227   -4.2206 H   0  0  0  0  0  0
  -14.0713  -25.0625    2.0398 H   0  0  0  0  0  0
  -15.3764  -20.8485   -3.0561 H   0  0  0  0  0  0
  1  2  1  0  0  0
  1 40  1  0  0  0
  1 41  1  0  0  0
  2  3  2  0  0  0
  2  4  2  0  0  0
  2  5  1  0  0  0
  5  6  2  0  0  0
  5 39  1  0  0  0
  6  7  1  0  0  0
  7  8  2  0  0  0
  8  9  1  0  0  0
  8 38  1  0  0  0
  9 10  1  0  0  0
 10 11  2  0  0  0
 10 37  1  0  0  0
 11 12  1  0  0  0
 12 13  2  0  0  0
 13 14  1  0  0  0
 14 15  1  0  0  0
 14 37  2  0  0  0
 15 16  1  0  0  0
 15 42  1  0  0  0
 16 17  2  0  0  0
 16 18  1  0  0  0
 18 19  1  0  0  0
 18 43  1  0  0  0
 19 20  2  0  0  0
 19 36  1  0  0  0
 20 21  1  0  0  0
 21 22  2  0  0  0
 22 23  1  0  0  0
 22 35  1  0  0  0
 23 24  1  0  0  0
 24 25  1  0  0  0
 25 26  1  0  0  0
 25 44  1  0  0  0
 26 27  2  0  0  0
 26 28  1  0  0  0
 28 29  1  0  0  0
 28 34  1  0  0  0
 29 30  1  0  0  0
 30 31  1  0  0  0
 31 32  1  0  0  0
 31 33  1  0  0  0
 32 45  1  0  0  0
 33 34  1  0  0  0
 35 36  2  0  0  0
 38 39  2  0  0  0
M  END
>  <AUTHOR>
    GENERATED BY OPEN BABEL 2.3.2

>  <CHROM.1>
-163.97308395,145.55113230,-106.75663841,-56.91496982,-6.55268816,-79.51975116
-66.77748581,-155.65971177,56.50701643,-122.46689550,152.58836271,65.93706518
-11.36937764,-29.71782344,-3.54617958,-0.97728458,-0.42908928,0.76583505

>  <COMPND>
    UNNAMED

>  <MASTER>
        0    0    0    0    0    0    0    0   72    0   72    0

>  <Name>
ligands/mol3.pdb

>  <RI>
2.50828e+07

>  <Rbt.Current_Directory>
/home/rodrigo/Desktop/Rodrigo/Proyectos/test_OCONDOR/OCONDOR

>  <Rbt.Executable>
rbdock ($Id: //depot/dev/client3/rdock/2013.1/src/exe/rbdock.cxx#4 $)

>  <Rbt.Library>
libRbt.so (2013.1, Build901 2013/11/27)

>  <Rbt.Parameter_File>
dock.prm

>  <Rbt.Receptor>
rdock.prm

>  <SCORE>
-13.1627

>  <SCORE.INTER>
-9.44141

>  <SCORE.INTER.CONST>
1

>  <SCORE.INTER.POLAR>
-1.624

>  <SCORE.INTER.REPUL>
0.0366499

>  <SCORE.INTER.ROT>
11

>  <SCORE.INTER.VDW>
-20.5031

>  <SCORE.INTER.norm>
-0.242087

>  <SCORE.INTRA>
-3.72125

>  <SCORE.INTRA.DIHEDRAL>
-2.20852

>  <SCORE.INTRA.DIHEDRAL.0>
10.441

>  <SCORE.INTRA.POLAR>
0

>  <SCORE.INTRA.POLAR.0>
0

>  <SCORE.INTRA.REPUL>
0

>  <SCORE.INTRA.REPUL.0>
0

>  <SCORE.INTRA.VDW>
-2.617

>  <SCORE.INTRA.VDW.0>
-1.98888

>  <SCORE.INTRA.norm>
-0.0954167

>  <SCORE.RESTR>
0

>  <SCORE.RESTR.CAVITY>
0

>  <SCORE.RESTR.norm>
0

>  <SCORE.SYSTEM>
0

>  <SCORE.SYSTEM.CONST>
0

>  <SCORE.SYSTEM.DIHEDRAL>
0

>  <SCORE.SYSTEM.norm>
0

>  <SCORE.heavy>
39

>  <SCORE.norm>
-0.337504

$$$$
ligands/mol3.pdb
  rDOCK(R)          3D
libRbt.so/2013.1/901 2013/11/27
 45 48  0  0  0  0  0  0  0  0999 V2000
   -6.2786  -32.2776    0.2967 N   0  0  0  0  0  0
   -5.3518  -31.8752   -1.0602 S   0  0  0  0  0  0
   -4.8502  -30.5284   -0.8967 O   0  0  0  0  0  0
   -4.4588  -32.9914   -1.2853 O   0  0  0  0  0  0
   -6.5648  -31.8400   -2.3487 C   0  0  0  0  0  0
   -7.0561  -30.6243   -2.8175 C   0  0  0  0  0  0
   -7.9969  -30.6142   -3.8494 C   0  0  0  0  0  0
   -8.5570  -31.7980   -4.3519 C   0  0  0  0  0  0
   -9.7110  -31.8264   -5.3666 C   0  0  0  0  0  0
  -11.1417  -31.8331   -4.8351 C   0  0  0  0  0  0
  -12.2296  -32.1851   -5.6469 C   0  0  0  0  0  0
  -13.4912  -32.4063   -5.1048 C   0  0  0  0  0  0
  -13.7322  -32.1085   -3.7707 C   0  0  0  0  0  0
  -12.7283  -31.5395   -2.9883 C   0  0  0  0  0  0
  -12.9749  -31.0301   -1.6929 N   0  0  0  0  0  0
  -14.2056  -30.7241   -1.1465 C   0  0  0  0  0  0
  -15.3085  -30.8779   -1.6743 O   0  0  0  0  0  0
  -14.0472  -30.1549    0.1126 N   0  0  0  0  0  0
  -14.4520  -28.8213    0.3239 C   0  0  0  0  0  0
  -15.7630  -28.4692    0.0295 C   0  0  0  0  0  0
  -16.1733  -27.1503    0.2135 C   0  0  0  0  0  0
  -15.2487  -26.2141    0.6744 C   0  0  0  0  0  0
  -15.6752  -24.7843    0.9037 C   0  0  0  0  0  0
  -15.1346  -23.8221   -0.1575 C   0  0  0  0  0  0
  -14.9801  -24.4519   -1.4572 N   0  0  0  0  0  0
  -13.7766  -25.0277   -1.8231 C   0  0  0  0  0  0
  -12.7852  -25.0269   -1.1031 O   0  0  0  0  0  0
  -13.8000  -25.6405   -3.2235 C   0  0  0  0  0  0
  -12.4589  -26.2956   -3.5669 C   0  0  0  0  0  0
  -12.2895  -27.6884   -2.9550 C   0  0  0  0  0  0
  -13.4619  -28.6117   -3.2743 C   0  0  0  0  0  0
  -13.4864  -28.8806   -4.6747 O   0  0  0  0  0  0
  -14.7954  -27.9943   -2.8708 C   0  0  0  0  0  0
  -14.9938  -26.5825   -3.4228 C   0  0  0  0  0  0
  -13.9632  -26.5446    0.9472 N   0  0  0  0  0  0
  -13.5928  -27.8323    0.7821 C   0  0  0  0  0  0
  -11.4251  -31.4405   -3.5135 C   0  0  0  0  0  0
   -8.0146  -33.0098   -3.8858 C   0  0  0  0  0  0
   -7.0181  -33.0335   -2.9006 C   0  0  0  0  0  0
   -5.7731  -32.2658    1.1865 H   0  0  0  0  0  0
   -6.7890  -33.1555    0.1483 H   0  0  0  0  0  0
  -12.1741  -30.6430   -1.2127 H   0  0  0  0  0  0
  -14.4253  -30.7823    0.8126 H   0  0  0  0  0  0
  -15.6739  -24.2822   -2.1731 H   0  0  0  0  0  0
  -14.2277  -29.4894   -4.8374 H   0  0  0  0  0  0
  1  2  1  0  0  0
  1 40  1  0  0  0
  1 41  1  0  0  0
  2  3  2  0  0  0
  2  4  2  0  0  0
  2  5  1  0  0  0
  5  6  2  0  0  0
  5 39  1  0  0  0
  6  7  1  0  0  0
  7  8  2  0  0  0
  8  9  1  0  0  0
  8 38  1  0  0  0
  9 10  1  0  0  0
 10 11  2  0  0  0
 10 37  1  0  0  0
 11 12  1  0  0  0
 12 13  2  0  0  0
 13 14  1  0  0  0
 14 15  1  0  0  0
 14 37  2  0  0  0
 15 16  1  0  0  0
 15 42  1  0  0  0
 16 17  2  0  0  0
 16 18  1  0  0  0
 18 19  1  0  0  0
 18 43  1  0  0  0
 19 20  2  0  0  0
 19 36  1  0  0  0
 20 21  1  0  0  0
 21 22  2  0  0  0
 22 23  1  0  0  0
 22 35  1  0  0  0
 23 24  1  0  0  0
 24 25  1  0  0  0
 25 26  1  0  0  0
 25 44  1  0  0  0
 26 27  2  0  0  0
 26 28  1  0  0  0
 28 29  1  0  0  0
 28 34  1  0  0  0
 29 30  1  0  0  0
 30 31  1  0  0  0
 31 32  1  0  0  0
 31 33  1  0  0  0
 32 45  1  0  0  0
 33 34  1  0  0  0
 35 36  2  0  0  0
 38 39  2  0  0  0
M  END
>  <AUTHOR>
    GENERATED BY OPEN BABEL 2.3.2

>  <CHROM.1>
-60.96151502,102.10377010,-89.35084489,-164.05214646,-16.31180631,115.71279213
55.76663280,-106.92915304,31.17638042,-92.35269056,-178.52587325,178.42858002
-11.64388323,-29.41198088,-2.07242386,-0.53192226,-0.32442562,0.72513220

>  <COMPND>
    UNNAMED

>  <MASTER>
        0    0    0    0    0    0    0    0   72    0   72    0

>  <Name>
ligands/mol3.pdb

>  <RI>
2.50828e+07

>  <Rbt.Current_Directory>
/home/rodrigo/Desktop/Rodrigo/Proyectos/test_OCONDOR/OCONDOR

>  <Rbt.Executable>
rbdock ($Id: //depot/dev/client3/rdock/2013.1/src/exe/rbdock.cxx#4 $)

>  <Rbt.Library>
libRbt.so (2013.1, Build901 2013/11/27)

>  <Rbt.Parameter_File>
dock.prm

>  <Rbt.Receptor>
rdock.prm

>  <SCORE>
-16.1088

>  <SCORE.INTER>
-9.42573

>  <SCORE.INTER.CONST>
1

>  <SCORE.INTER.POLAR>
-0.777729

>  <SCORE.INTER.REPUL>
0

>  <SCORE.INTER.ROT>
11

>  <SCORE.INTER.VDW>
-23.1814

>  <SCORE.INTER.norm>
-0.241685

>  <SCORE.INTRA>
-6.68312

>  <SCORE.INTRA.DIHEDRAL>
-0.557095

>  <SCORE.INTRA.DIHEDRAL.0>
10.441

>  <SCORE.INTRA.POLAR>
0

>  <SCORE.INTRA.POLAR.0>
0

>  <SCORE.INTRA.REPUL>
0

>  <SCORE.INTRA.REPUL.0>
0

>  <SCORE.INTRA.VDW>
-6.40458

>  <SCORE.INTRA.VDW.0>
-1.98888

>  <SCORE.INTRA.norm>
-0.171362

>  <SCORE.RESTR>
0

>  <SCORE.RESTR.CAVITY>
0

>  <SCORE.RESTR.norm>
0

>  <SCORE.SYSTEM>
0

>  <SCORE.SYSTEM.CONST>
0

>  <SCORE.SYSTEM.DIHEDRAL>
0

>  <SCORE.SYSTEM.norm>
0

>  <SCORE.heavy>
39

>  <SCORE.norm>
-0.413047

$$$$
ligands/mol3.pdb
  rDOCK(R)          3D
libRbt.so/2013.1/901 2013/11/27
 45 48  0  0  0  0  0  0  0  0999 V2000
  -16.2492  -17.9794   -3.4558 N   0  0  0  0  0  0
  -17.6925  -18.8537   -3.5756 S   0  0  0  0  0  0
  -18.7098  -18.1785   -2.8003 O   0  0  0  0  0  0
  -17.8787  -19.1358   -4.9827 O   0  0  0  0  0  0
  -17.2926  -20.3592   -2.7352 C   0  0  0  0  0  0
  -18.2623  -21.0273   -1.9920 C   0  0  0  0  0  0
  -17.9354  -22.2251   -1.3528 C   0  0  0  0  0  0
  -16.6230  -22.7202   -1.3348 C   0  0  0  0  0  0
  -16.1883  -23.9409   -0.5084 C   0  0  0  0  0  0
  -15.9163  -25.2513   -1.2419 C   0  0  0  0  0  0
  -16.3103  -25.4484   -2.5731 C   0  0  0  0  0  0
  -15.8658  -26.5470   -3.3011 C   0  0  0  0  0  0
  -15.1649  -27.5611   -2.6631 C   0  0  0  0  0  0
  -14.9521  -27.5058   -1.2865 C   0  0  0  0  0  0
  -14.4294  -28.5978   -0.5564 N   0  0  0  0  0  0
  -14.3524  -29.9108   -0.9769 C   0  0  0  0  0  0
  -14.6875  -30.3570   -2.0756 O   0  0  0  0  0  0
  -13.8695  -30.7186    0.0473 N   0  0  0  0  0  0
  -12.6087  -31.3330   -0.0936 C   0  0  0  0  0  0
  -12.4218  -32.5996    0.4450 C   0  0  0  0  0  0
  -11.1753  -33.2123    0.3321 C   0  0  0  0  0  0
  -10.1424  -32.5276   -0.3067 C   0  0  0  0  0  0
   -8.7898  -33.1797   -0.4619 C   0  0  0  0  0  0
   -8.5862  -33.8121   -1.8413 C   0  0  0  0  0  0
   -8.7035  -32.8482   -2.9216 N   0  0  0  0  0  0
   -9.8764  -32.7420   -3.6475 C   0  0  0  0  0  0
  -10.8578  -33.4470   -3.4451 O   0  0  0  0  0  0
   -9.8158  -31.6769   -4.7425 C   0  0  0  0  0  0
   -9.5509  -30.2879   -4.1539 C   0  0  0  0  0  0
   -8.0770  -30.0395   -3.8240 C   0  0  0  0  0  0
   -7.1579  -30.3311   -5.0069 C   0  0  0  0  0  0
   -7.4131  -29.3914   -6.0489 O   0  0  0  0  0  0
   -7.3675  -31.7379   -5.5539 C   0  0  0  0  0  0
   -8.8327  -32.0503   -5.8589 C   0  0  0  0  0  0
  -10.3105  -31.2847   -0.8194 N   0  0  0  0  0  0
  -11.5319  -30.7186   -0.7176 C   0  0  0  0  0  0
  -15.2947  -26.3317   -0.5878 C   0  0  0  0  0  0
  -15.6742  -22.0446   -2.1244 C   0  0  0  0  0  0
  -16.0063  -20.8799   -2.8295 C   0  0  0  0  0  0
  -16.3391  -16.9709   -3.6044 H   0  0  0  0  0  0
  -15.5149  -18.3969   -4.0387 H   0  0  0  0  0  0
  -14.3149  -28.4485    0.4367 H   0  0  0  0  0  0
  -13.9565  -30.2274    0.9291 H   0  0  0  0  0  0
   -7.8675  -32.4094   -3.2840 H   0  0  0  0  0  0
   -7.1500  -28.5156   -5.7167 H   0  0  0  0  0  0
  1  2  1  0  0  0
  1 40  1  0  0  0
  1 41  1  0  0  0
  2  3  2  0  0  0
  2  4  2  0  0  0
  2  5  1  0  0  0
  5  6  2  0  0  0
  5 39  1  0  0  0
  6  7  1  0  0  0
  7  8  2  0  0  0
  8  9  1  0  0  0
  8 38  1  0  0  0
  9 10  1  0  0  0
 10 11  2  0  0  0
 10 37  1  0  0  0
 11 12  1  0  0  0
 12 13  2  0  0  0
 13 14  1  0  0  0
 14 15  1  0  0  0
 14 37  2  0  0  0
 15 16  1  0  0  0
 15 42  1  0  0  0
 16 17  2  0  0  0
 16 18  1  0  0  0
 18 19  1  0  0  0
 18 43  1  0  0  0
 19 20  2  0  0  0
 19 36  1  0  0  0
 20 21  1  0  0  0
 21 22  2  0  0  0
 22 23  1  0  0  0
 22 35  1  0  0  0
 23 24  1  0  0  0
 24 25  1  0  0  0
 25 26  1  0  0  0
 25 44  1  0  0  0
 26 27  2  0  0  0
 26 28  1  0  0  0
 28 29  1  0  0  0
 28 34  1  0  0  0
 29 30  1  0  0  0
 30 31  1  0  0  0
 31 32  1  0  0  0
 31 33  1  0  0  0
 32 45  1  0  0  0
 33 34  1  0  0  0
 35 36  2  0  0  0
 38 39  2  0  0  0
M  END
>  <AUTHOR>
    GENERATED BY OPEN BABEL 2.3.2

>  <CHROM.1>
-47.44883568,145.66964392,105.96641394,-13.39504432,-16.13955176,-113.39268583
-145.03191370,98.20387347,59.37140916,-99.56315518,-60.41291236,65.61005831
-13.25296637,-27.33794721,-2.45010486,-2.34743719,-0.66479132,2.58899635

>  <COMPND>
    UNNAMED

>  <MASTER>
        0    0    0    0    0    0    0    0   72    0   72    0

>  <Name>
ligands/mol3.pdb

>  <RI>
2.50828e+07

>  <Rbt.Current_Directory>
/home/rodrigo/Desktop/Rodrigo/Proyectos/test_OCONDOR/OCONDOR

>  <Rbt.Executable>
rbdock ($Id: //depot/dev/client3/rdock/2013.1/src/exe/rbdock.cxx#4 $)

>  <Rbt.Library>
libRbt.so (2013.1, Build901 2013/11/27)

>  <Rbt.Parameter_File>
dock.prm

>  <Rbt.Receptor>
rdock.prm

>  <SCORE>
-12.0363

>  <SCORE.INTER>
-9.27014

>  <SCORE.INTER.CONST>
1

>  <SCORE.INTER.POLAR>
0

>  <SCORE.INTER.REPUL>
0.266055

>  <SCORE.INTER.ROT>
11

>  <SCORE.INTER.VDW>
-27.0004

>  <SCORE.INTER.norm>
-0.237696

>  <SCORE.INTRA>
-2.76612

>  <SCORE.INTRA.DIHEDRAL>
-2.74664

>  <SCORE.INTRA.DIHEDRAL.0>
10.441

>  <SCORE.INTRA.POLAR>
0

>  <SCORE.INTRA.POLAR.0>
0

>  <SCORE.INTRA.REPUL>
0

>  <SCORE.INTRA.REPUL.0>
0

>  <SCORE.INTRA.VDW>
-1.3928

>  <SCORE.INTRA.VDW.0>
-1.98888

>  <SCORE.INTRA.norm>
-0.0709262

>  <SCORE.RESTR>
0

>  <SCORE.RESTR.CAVITY>
0

>  <SCORE.RESTR.norm>
0

>  <SCORE.SYSTEM>
0

>  <SCORE.SYSTEM.CONST>
0

>  <SCORE.SYSTEM.DIHEDRAL>
0

>  <SCORE.SYSTEM.norm>
0

>  <SCORE.heavy>
39

>  <SCORE.norm>
-0.308622

$$$$
ligands/mol3.pdb
  rDOCK(R)          3D
libRbt.so/2013.1/901 2013/11/27
 45 48  0  0  0  0  0  0  0  0999 V2000
  -12.5504  -32.4040   -9.6075 N   0  0  0  0  0  0
  -11.9962  -33.5002   -8.4442 S   0  0  0  0  0  0
  -13.0522  -34.4462   -8.1577 O   0  0  0  0  0  0
  -10.6911  -33.9379   -8.8906 O   0  0  0  0  0  0
  -11.8009  -32.4705   -7.0179 C   0  0  0  0  0  0
  -10.8432  -31.4598   -7.0074 C   0  0  0  0  0  0
  -10.7172  -30.6428   -5.8820 C   0  0  0  0  0  0
  -11.4457  -30.8833   -4.7075 C   0  0  0  0  0  0
  -11.2184  -30.1149   -3.3960 C   0  0  0  0  0  0
  -12.3534  -30.0717   -2.3767 C   0  0  0  0  0  0
  -12.7153  -31.1995   -1.6260 C   0  0  0  0  0  0
  -13.5897  -31.0980   -0.5491 C   0  0  0  0  0  0
  -14.2567  -29.9043   -0.3106 C   0  0  0  0  0  0
  -14.0922  -28.8253   -1.1779 C   0  0  0  0  0  0
  -14.8952  -27.6641   -1.1030 N   0  0  0  0  0  0
  -16.1198  -27.5463   -0.4762 C   0  0  0  0  0  0
  -16.7113  -28.4185    0.1625 O   0  0  0  0  0  0
  -16.6550  -26.2813   -0.6952 N   0  0  0  0  0  0
  -15.8455  -25.1447   -0.4957 C   0  0  0  0  0  0
  -15.9679  -24.0777   -1.3766 C   0  0  0  0  0  0
  -15.1603  -22.9550   -1.2052 C   0  0  0  0  0  0
  -14.2377  -22.9408   -0.1601 C   0  0  0  0  0  0
  -13.3680  -21.7267    0.0600 C   0  0  0  0  0  0
  -12.6029  -21.3040   -1.1970 C   0  0  0  0  0  0
  -11.8784  -22.4048   -1.8078 N   0  0  0  0  0  0
  -10.7062  -22.1762   -2.5060 C   0  0  0  0  0  0
  -10.2268  -21.0602   -2.6668 O   0  0  0  0  0  0
  -10.0846  -23.4504   -3.0783 C   0  0  0  0  0  0
   -9.6470  -24.4052   -1.9635 C   0  0  0  0  0  0
  -10.8001  -25.2246   -1.3788 C   0  0  0  0  0  0
  -11.6036  -25.9501   -2.4545 C   0  0  0  0  0  0
  -10.7858  -26.9448   -3.0676 O   0  0  0  0  0  0
  -12.1017  -24.9937   -3.5313 C   0  0  0  0  0  0
  -10.9920  -24.1206   -4.1173 C   0  0  0  0  0  0
  -14.0990  -23.9841    0.6932 N   0  0  0  0  0  0
  -14.9060  -25.0528    0.5217 C   0  0  0  0  0  0
  -13.1108  -28.9009   -2.1855 C   0  0  0  0  0  0
  -12.4310  -31.8864   -4.7607 C   0  0  0  0  0  0
  -12.6174  -32.6676   -5.9093 C   0  0  0  0  0  0
  -13.2768  -31.7593   -9.2850 H   0  0  0  0  0  0
  -12.8123  -32.8865  -10.4746 H   0  0  0  0  0  0
  -14.6637  -26.9266   -1.7543 H   0  0  0  0  0  0
  -17.1166  -26.2656   -1.5970 H   0  0  0  0  0  0
  -12.3364  -23.3007   -1.9092 H   0  0  0  0  0  0
  -11.3396  -27.4113   -3.7174 H   0  0  0  0  0  0
  1  2  1  0  0  0
  1 40  1  0  0  0
  1 41  1  0  0  0
  2  3  2  0  0  0
  2  4  2  0  0  0
  2  5  1  0  0  0
  5  6  2  0  0  0
  5 39  1  0  0  0
  6  7  1  0  0  0
  7  8  2  0  0  0
  8  9  1  0  0  0
  8 38  1  0  0  0
  9 10  1  0  0  0
 10 11  2  0  0  0
 10 37  1  0  0  0
 11 12  1  0  0  0
 12 13  2  0  0  0
 13 14  1  0  0  0
 14 15  1  0  0  0
 14 37  2  0  0  0
 15 16  1  0  0  0
 15 42  1  0  0  0
 16 17  2  0  0  0
 16 18  1  0  0  0
 18 19  1  0  0  0
 18 43  1  0  0  0
 19 20  2  0  0  0
 19 36  1  0  0  0
 20 21  1  0  0  0
 21 22  2  0  0  0
 22 23  1  0  0  0
 22 35  1  0  0  0
 23 24  1  0  0  0
 24 25  1  0  0  0
 25 26  1  0  0  0
 25 44  1  0  0  0
 26 27  2  0  0  0
 26 28  1  0  0  0
 28 29  1  0  0  0
 28 34  1  0  0  0
 29 30  1  0  0  0
 30 31  1  0  0  0
 31 32  1  0  0  0
 31 33  1  0  0  0
 32 45  1  0  0  0
 33 34  1  0  0  0
 35 36  2  0  0  0
 38 39  2  0  0  0
M  END
>  <AUTHOR>
    GENERATED BY OPEN BABEL 2.3.2

>  <CHROM.1>
69.19622289,-65.68688078,157.61375584,71.84737713,-18.65270795,-48.03579282
141.35532104,-53.33251080,-51.07627426,-149.92732003,-64.22186694,177.55502378
-12.74660558,-27.70063599,-3.16920976,-1.41943709,0.76932524,0.47581113

>  <COMPND>
    UNNAMED

>  <MASTER>
        0    0    0    0    0    0    0    0   72    0   72    0

>  <Name>
ligands/mol3.pdb

>  <RI>
2.50828e+07

>  <Rbt.Current_Directory>
/home/rodrigo/Desktop/Rodrigo/Proyectos/test_OCONDOR/OCONDOR

>  <Rbt.Executable>
rbdock ($Id: //depot/dev/client3/rdock/2013.1/src/exe/rbdock.cxx#4 $)

>  <Rbt.Library>
libRbt.so (2013.1, Build901 2013/11/27)

>  <Rbt.Parameter_File>
dock.prm

>  <Rbt.Receptor>
rdock.prm

>  <SCORE>
-12.7612

>  <SCORE.INTER>
-9.22379

>  <SCORE.INTER.CONST>
1

>  <SCORE.INTER.POLAR>
-0.979796

>  <SCORE.INTER.REPUL>
0.00247277

>  <SCORE.INTER.ROT>
11

>  <SCORE.INTER.VDW>
-22.3048

>  <SCORE.INTER.norm>
-0.236507

>  <SCORE.INTRA>
-3.53743

>  <SCORE.INTRA.DIHEDRAL>
-3.39049

>  <SCORE.INTRA.DIHEDRAL.0>
10.441

>  <SCORE.INTRA.POLAR>
0

>  <SCORE.INTRA.POLAR.0>
0

>  <SCORE.INTRA.REPUL>
0

>  <SCORE.INTRA.REPUL.0>
0

>  <SCORE.INTRA.VDW>
-1.84219

>  <SCORE.INTRA.VDW.0>
-1.98888

>  <SCORE.INTRA.norm>
-0.0907033

>  <SCORE.RESTR>
0

>  <SCORE.RESTR.CAVITY>
0

>  <SCORE.RESTR.norm>
0

>  <SCORE.SYSTEM>
0

>  <SCORE.SYSTEM.CONST>
0

>  <SCORE.SYSTEM.DIHEDRAL>
0

>  <SCORE.SYSTEM.norm>
0

>  <SCORE.heavy>
39

>  <SCORE.norm>
-0.327211

$$$$
ligands/mol3.pdb
  rDOCK(R)          3D
libRbt.so/2013.1/901 2013/11/27
 45 48  0  0  0  0  0  0  0  0999 V2000
   -9.8351  -24.1293   -4.8566 N   0  0  0  0  0  0
  -10.9799  -24.5977   -6.0107 S   0  0  0  0  0  0
  -11.2128  -23.4890   -6.9098 O   0  0  0  0  0  0
  -10.5539  -25.8908   -6.5011 O   0  0  0  0  0  0
  -12.4395  -24.8062   -5.0315 C   0  0  0  0  0  0
  -12.9353  -23.7469   -4.2759 C   0  0  0  0  0  0
  -14.1001  -23.9225   -3.5259 C   0  0  0  0  0  0
  -14.7257  -25.1729   -3.4121 C   0  0  0  0  0  0
  -15.9081  -25.4471   -2.4693 C   0  0  0  0  0  0
  -15.6246  -26.1247   -1.1316 C   0  0  0  0  0  0
  -15.7598  -25.4417    0.0857 C   0  0  0  0  0  0
  -15.7201  -26.1188    1.3000 C   0  0  0  0  0  0
  -15.3682  -27.4611    1.3318 C   0  0  0  0  0  0
  -15.0040  -28.1170    0.1567 C   0  0  0  0  0  0
  -14.4440  -29.4151    0.1564 N   0  0  0  0  0  0
  -14.0094  -30.1265   -0.9444 C   0  0  0  0  0  0
  -13.9948  -29.7424   -2.1152 O   0  0  0  0  0  0
  -13.6104  -31.4044   -0.5672 N   0  0  0  0  0  0
  -12.2359  -31.7135   -0.5209 C   0  0  0  0  0  0
  -11.8494  -33.0439   -0.6197 C   0  0  0  0  0  0
  -10.4956  -33.3681   -0.5551 C   0  0  0  0  0  0
   -9.5648  -32.3456   -0.3766 C   0  0  0  0  0  0
   -8.0912  -32.6691   -0.3268 C   0  0  0  0  0  0
   -7.2865  -31.9593   -1.4189 C   0  0  0  0  0  0
   -5.8554  -31.9955   -1.1725 N   0  0  0  0  0  0
   -5.0445  -30.9483   -1.5720 C   0  0  0  0  0  0
   -5.4654  -29.9592   -2.1601 O   0  0  0  0  0  0
   -3.5696  -31.1609   -1.2302 C   0  0  0  0  0  0
   -3.3553  -31.2413    0.2842 C   0  0  0  0  0  0
   -3.6945  -32.6129    0.8732 C   0  0  0  0  0  0
   -2.9845  -33.7512    0.1458 C   0  0  0  0  0  0
   -1.5787  -33.6502    0.3644 O   0  0  0  0  0  0
   -3.2504  -33.7180   -1.3544 C   0  0  0  0  0  0
   -2.9673  -32.3535   -1.9832 C   0  0  0  0  0  0
   -9.9339  -31.0469   -0.2614 N   0  0  0  0  0  0
  -11.2488  -30.7533   -0.3479 C   0  0  0  0  0  0
  -15.1715  -27.4562   -1.0758 C   0  0  0  0  0  0
  -14.2244  -26.2138   -4.2154 C   0  0  0  0  0  0
  -13.0976  -26.0316   -5.0285 C   0  0  0  0  0  0
  -10.0935  -23.3136   -4.2953 H   0  0  0  0  0  0
   -8.9036  -24.0359   -5.2771 H   0  0  0  0  0  0
  -14.5850  -29.9552    0.9991 H   0  0  0  0  0  0
  -14.0874  -31.6642    0.2881 H   0  0  0  0  0  0
   -5.4226  -32.8702   -0.9076 H   0  0  0  0  0  0
   -1.4290  -33.7485    1.3207 H   0  0  0  0  0  0
  1  2  1  0  0  0
  1 40  1  0  0  0
  1 41  1  0  0  0
  2  3  2  0  0  0
  2  4  2  0  0  0
  2  5  1  0  0  0
  5  6  2  0  0  0
  5 39  1  0  0  0
  6  7  1  0  0  0
  7  8  2  0  0  0
  8  9  1  0  0  0
  8 38  1  0  0  0
  9 10  1  0  0  0
 10 11  2  0  0  0
 10 37  1  0  0  0
 11 12  1  0  0  0
 12 13  2  0  0  0
 13 14  1  0  0  0
 14 15  1  0  0  0
 14 37  2  0  0  0
 15 16  1  0  0  0
 15 42  1  0  0  0
 16 17  2  0  0  0
 16 18  1  0  0  0
 18 19  1  0  0  0
 18 43  1  0  0  0
 19 20  2  0  0  0
 19 36  1  0  0  0
 20 21  1  0  0  0
 21 22  2  0  0  0
 22 23  1  0  0  0
 22 35  1  0  0  0
 23 24  1  0  0  0
 24 25  1  0  0  0
 25 26  1  0  0  0
 25 44  1  0  0  0
 26 27  2  0  0  0
 26 28  1  0  0  0
 28 29  1  0  0  0
 28 34  1  0  0  0
 29 30  1  0  0  0
 30 31  1  0  0  0
 31 32  1  0  0  0
 31 33  1  0  0  0
 32 45  1  0  0  0
 33 34  1  0  0  0
 35 36  2  0  0  0
 38 39  2  0  0  0
M  END
>  <AUTHOR>
    GENERATED BY OPEN BABEL 2.3.2

>  <CHROM.1>
58.61088249,57.97524089,-99.59232157,111.14956896,-177.55594308,-105.86218834
-157.28918768,120.49172928,165.44042285,-147.37488647,-63.10156279,62.23151368
-10.31665292,-28.93061061,-1.90327600,-2.53773526,-0.26298856,2.43862839

>  <COMPND>
    UNNAMED

>  <MASTER>
        0    0    0    0    0    0    0    0   72    0   72    0

>  <Name>
ligands/mol3.pdb

>  <RI>
2.50828e+07

>  <Rbt.Current_Directory>
/home/rodrigo/Desktop/Rodrigo/Proyectos/test_OCONDOR/OCONDOR

>  <Rbt.Executable>
rbdock ($Id: //depot/dev/client3/rdock/2013.1/src/exe/rbdock.cxx#4 $)

>  <Rbt.Library>
libRbt.so (2013.1, Build901 2013/11/27)

>  <Rbt.Parameter_File>
dock.prm

>  <Rbt.Receptor>
rdock.prm

>  <SCORE>
-10.3579

>  <SCORE.INTER>
-9.09716

>  <SCORE.INTER.CONST>
1

>  <SCORE.INTER.POLAR>
-1.32821

>  <SCORE.INTER.REPUL>
0

>  <SCORE.INTER.ROT>
11

>  <SCORE.INTER.VDW>
-20.9812

>  <SCORE.INTER.norm>
-0.233261

>  <SCORE.INTRA>
-1.2607

>  <SCORE.INTRA.DIHEDRAL>
-3.20792

>  <SCORE.INTRA.DIHEDRAL.0>
10.441

>  <SCORE.INTRA.POLAR>
0

>  <SCORE.INTRA.POLAR.0>
0

>  <SCORE.INTRA.REPUL>
0

>  <SCORE.INTRA.REPUL.0>
0

>  <SCORE.INTRA.VDW>
0.343264

>  <SCORE.INTRA.VDW.0>
-1.98888

>  <SCORE.INTRA.norm>
-0.0323256

>  <SCORE.RESTR>
0

>  <SCORE.RESTR.CAVITY>
0

>  <SCORE.RESTR.norm>
0

>  <SCORE.SYSTEM>
0

>  <SCORE.SYSTEM.CONST>
0

>  <SCORE.SYSTEM.DIHEDRAL>
0

>  <SCORE.SYSTEM.norm>
0

>  <SCORE.heavy>
39

>  <SCORE.norm>
-0.265586

$$$$
ligands/mol3.pdb
  rDOCK(R)          3D
libRbt.so/2013.1/901 2013/11/27
 45 48  0  0  0  0  0  0  0  0999 V2000
  -15.4375  -20.3155   -4.3587 N   0  0  0  0  0  0
  -14.2258  -19.7462   -3.3245 S   0  0  0  0  0  0
  -13.0278  -19.5091   -4.0995 O   0  0  0  0  0  0
  -14.8311  -18.6986   -2.5307 O   0  0  0  0  0  0
  -13.9226  -21.1498   -2.2897 C   0  0  0  0  0  0
  -13.7408  -20.9854   -0.9190 C   0  0  0  0  0  0
  -13.5240  -22.1058   -0.1142 C   0  0  0  0  0  0
  -13.3628  -23.3884   -0.6591 C   0  0  0  0  0  0
  -12.9595  -24.6178    0.1704 C   0  0  0  0  0  0
  -13.8962  -25.8226    0.1805 C   0  0  0  0  0  0
  -14.7256  -26.1043    1.2756 C   0  0  0  0  0  0
  -15.7305  -27.0621    1.1907 C   0  0  0  0  0  0
  -15.8126  -27.8807    0.0727 C   0  0  0  0  0  0
  -14.8594  -27.7801   -0.9397 C   0  0  0  0  0  0
  -14.7734  -28.7172   -1.9947 N   0  0  0  0  0  0
  -15.5046  -29.8811   -2.1268 C   0  0  0  0  0  0
  -16.3887  -30.2893   -1.3718 O   0  0  0  0  0  0
  -15.0781  -30.5957   -3.2412 N   0  0  0  0  0  0
  -13.7590  -31.0909   -3.2812 C   0  0  0  0  0  0
  -13.1023  -31.1370   -4.5042 C   0  0  0  0  0  0
  -11.8052  -31.6429   -4.5639 C   0  0  0  0  0  0
  -11.2067  -32.1050   -3.3926 C   0  0  0  0  0  0
   -9.7941  -32.6361   -3.4277 C   0  0  0  0  0  0
   -9.6951  -34.0300   -4.0531 C   0  0  0  0  0  0
   -8.3687  -34.6080   -3.9250 N   0  0  0  0  0  0
   -7.8988  -35.0284   -2.6936 C   0  0  0  0  0  0
   -8.5446  -34.9259   -1.6574 O   0  0  0  0  0  0
   -6.4855  -35.6084   -2.7513 C   0  0  0  0  0  0
   -5.4513  -34.5240   -3.0681 C   0  0  0  0  0  0
   -5.0616  -33.6826   -1.8502 C   0  0  0  0  0  0
   -4.6288  -34.5399   -0.6641 C   0  0  0  0  0  0
   -3.4147  -35.2158   -0.9852 O   0  0  0  0  0  0
   -5.6846  -35.5764   -0.2990 C   0  0  0  0  0  0
   -6.1394  -36.4151   -1.4936 C   0  0  0  0  0  0
  -11.8462  -32.0805   -2.1983 N   0  0  0  0  0  0
  -13.0941  -31.5668   -2.1597 C   0  0  0  0  0  0
  -13.9277  -26.7244   -0.8997 C   0  0  0  0  0  0
  -13.5887  -23.5288   -2.0409 C   0  0  0  0  0  0
  -13.8780  -22.4219   -2.8503 C   0  0  0  0  0  0
  -16.2960  -20.6224   -3.8938 H   0  0  0  0  0  0
  -15.0691  -21.0216   -5.0059 H   0  0  0  0  0  0
  -13.9513  -28.6478   -2.5787 H   0  0  0  0  0  0
  -15.7600  -31.3127   -3.4591 H   0  0  0  0  0  0
   -7.7107  -34.5060   -4.6861 H   0  0  0  0  0  0
   -3.1717  -35.7531   -0.2113 H   0  0  0  0  0  0
  1  2  1  0  0  0
  1 40  1  0  0  0
  1 41  1  0  0  0
  2  3  2  0  0  0
  2  4  2  0  0  0
  2  5  1  0  0  0
  5  6  2  0  0  0
  5 39  1  0  0  0
  6  7  1  0  0  0
  7  8  2  0  0  0
  8  9  1  0  0  0
  8 38  1  0  0  0
  9 10  1  0  0  0
 10 11  2  0  0  0
 10 37  1  0  0  0
 11 12  1  0  0  0
 12 13  2  0  0  0
 13 14  1  0  0  0
 14 15  1  0  0  0
 14 37  2  0  0  0
 15 16  1  0  0  0
 15 42  1  0  0  0
 16 17  2  0  0  0
 16 18  1  0  0  0
 18 19  1  0  0  0
 18 43  1  0  0  0
 19 20  2  0  0  0
 19 36  1  0  0  0
 20 21  1  0  0  0
 21 22  2  0  0  0
 22 23  1  0  0  0
 22 35  1  0  0  0
 23 24  1  0  0  0
 24 25  1  0  0  0
 25 26  1  0  0  0
 25 44  1  0  0  0
 26 27  2  0  0  0
 26 28  1  0  0  0
 28 29  1  0  0  0
 28 34  1  0  0  0
 29 30  1  0  0  0
 30 31  1  0  0  0
 31 32  1  0  0  0
 31 33  1  0  0  0
 32 45  1  0  0  0
 33 34  1  0  0  0
 35 36  2  0  0  0
 38 39  2  0  0  0
M  END
>  <AUTHOR>
    GENERATED BY OPEN BABEL 2.3.2

>  <CHROM.1>
172.97432905,-138.05447069,121.81283062,-103.70318448,-5.56229480,63.32100039
-145.78789146,-74.86908584,-172.37296316,70.78411317,68.48870715,-179.77346054
-11.78912582,-28.53586586,-2.07144479,-2.08387580,-0.03867319,3.12547808

>  <COMPND>
    UNNAMED

>  <MASTER>
        0    0    0    0    0    0    0    0   72    0   72    0

>  <Name>
ligands/mol3.pdb

>  <RI>
2.50828e+07

>  <Rbt.Current_Directory>
/home/rodrigo/Desktop/Rodrigo/Proyectos/test_OCONDOR/OCONDOR

>  <Rbt.Executable>
rbdock ($Id: //depot/dev/client3/rdock/2013.1/src/exe/rbdock.cxx#4 $)

>  <Rbt.Library>
libRbt.so (2013.1, Build901 2013/11/27)

>  <Rbt.Parameter_File>
dock.prm

>  <Rbt.Receptor>
rdock.prm

>  <SCORE>
-9.68858

>  <SCORE.INTER>
-6.36755

>  <SCORE.INTER.CONST>
1

>  <SCORE.INTER.POLAR>
-0.243489

>  <SCORE.INTER.REPUL>
0

>  <SCORE.INTER.ROT>
11

>  <SCORE.INTER.VDW>
-21.9397

>  <SCORE.INTER.norm>
-0.163271

>  <SCORE.INTRA>
-3.32103

>  <SCORE.INTRA.DIHEDRAL>
-3.69905

>  <SCORE.INTRA.DIHEDRAL.0>
10.441

>  <SCORE.INTRA.POLAR>
0

>  <SCORE.INTRA.POLAR.0>
0

>  <SCORE.INTRA.REPUL>
0

>  <SCORE.INTRA.REPUL.0>
0

>  <SCORE.INTRA.VDW>
-1.4715

>  <SCORE.INTRA.VDW.0>
-1.98888

>  <SCORE.INTRA.norm>
-0.0851546

>  <SCORE.RESTR>
0

>  <SCORE.RESTR.CAVITY>
0

>  <SCORE.RESTR.norm>
0

>  <SCORE.SYSTEM>
0

>  <SCORE.SYSTEM.CONST>
0

>  <SCORE.SYSTEM.DIHEDRAL>
0

>  <SCORE.SYSTEM.norm>
0

>  <SCORE.heavy>
39

>  <SCORE.norm>
-0.248425

$$$$
