ligands/mol9.pdb
  rDOCK(R)          3D
libRbt.so/2013.1/901 2013/11/27
 46 49  0  0  0  0  0  0  0  0999 V2000
   -3.5917  -30.7864    1.8847 N   0  0  0  0  0  0
   -3.7562  -30.4018    0.2532 S   0  0  0  0  0  0
   -4.3116  -29.0736    0.1839 O   0  0  0  0  0  0
   -2.5120  -30.7523   -0.4027 O   0  0  0  0  0  0
   -4.9972  -31.5670   -0.2462 C   0  0  0  0  0  0
   -5.6185  -31.4600   -1.4904 C   0  0  0  0  0  0
   -6.5814  -32.4084   -1.8683 C   0  0  0  0  0  0
   -6.9568  -33.4509   -0.9963 C   0  0  0  0  0  0
   -8.0078  -34.4849   -1.3985 C   0  0  0  0  0  0
   -9.1728  -33.9624   -2.2333 C   0  0  0  0  0  0
   -9.3014  -34.2893   -3.5928 C   0  0  0  0  0  0
  -10.2560  -33.6710   -4.4030 C   0  0  0  0  0  0
  -11.1776  -32.7915   -3.8431 C   0  0  0  0  0  0
  -11.1773  -32.5854   -2.4630 C   0  0  0  0  0  0
  -12.2036  -31.8557   -1.8332 N   0  0  0  0  0  0
  -12.4589  -30.5238   -2.1424 C   0  0  0  0  0  0
  -11.7268  -29.8192   -2.8368 O   0  0  0  0  0  0
  -13.7236  -29.9483   -1.4823 C   0  0  0  0  0  0
  -13.4283  -29.9343    0.3239 S   0  0  0  0  0  0
  -14.1520  -28.6288   -2.0981 C   0  0  0  0  0  0
  -14.3049  -27.4178   -1.4077 C   0  0  0  0  0  0
  -14.7247  -26.2588   -2.0770 C   0  0  0  0  0  0
  -14.9910  -24.9877   -1.3188 C   0  0  0  0  0  0
  -14.0444  -24.7086   -0.1526 C   0  0  0  0  0  0
  -14.1427  -23.3169    0.2499 N   0  0  0  0  0  0
  -13.1739  -22.3892   -0.0572 C   0  0  0  0  0  0
  -12.1673  -22.6722   -0.6977 O   0  0  0  0  0  0
  -13.5021  -20.9783    0.4471 C   0  0  0  0  0  0
  -12.2883  -20.0397    0.3879 C   0  0  0  0  0  0
  -11.9151  -19.6711   -1.0490 C   0  0  0  0  0  0
  -13.0940  -19.0845   -1.8225 C   0  0  0  0  0  0
  -13.3798  -17.7912   -1.2963 O   0  0  0  0  0  0
  -14.3499  -19.9491   -1.7316 C   0  0  0  0  0  0
  -14.6897  -20.3544   -0.2944 C   0  0  0  0  0  0
  -14.9624  -26.3619   -3.4421 C   0  0  0  0  0  0
  -14.8401  -27.5121   -4.1424 N   0  0  0  0  0  0
  -14.4746  -28.6139   -3.4558 C   0  0  0  0  0  0
  -10.1769  -33.1590   -1.6641 C   0  0  0  0  0  0
   -6.3648  -33.4827    0.2771 C   0  0  0  0  0  0
   -5.3683  -32.5717    0.6403 C   0  0  0  0  0  0
   -4.4927  -30.6936    2.3548 H   0  0  0  0  0  0
   -3.1067  -31.6649    2.0833 H   0  0  0  0  0  0
  -12.4413  -32.1350   -0.8884 H   0  0  0  0  0  0
  -14.2390  -30.9684    0.5929 H   0  0  0  0  0  0
  -14.9686  -23.0065    0.7449 H   0  0  0  0  0  0
  -14.1758  -17.4675   -1.7549 H   0  0  0  0  0  0
  1  2  1  0  0  0
  1 41  1  0  0  0
  1 42  1  0  0  0
  2  3  2  0  0  0
  2  4  2  0  0  0
  2  5  1  0  0  0
  5  6  2  0  0  0
  5 40  1  0  0  0
  6  7  1  0  0  0
  7  8  2  0  0  0
  8  9  1  0  0  0
  8 39  1  0  0  0
  9 10  1  0  0  0
 10 11  2  0  0  0
 10 38  1  0  0  0
 11 12  1  0  0  0
 12 13  2  0  0  0
 13 14  1  0  0  0
 14 15  1  0  0  0
 14 38  2  0  0  0
 15 16  1  0  0  0
 15 43  1  0  0  0
 16 17  2  0  0  0
 16 18  1  0  0  0
 18 19  1  0  0  0
 18 20  1  0  0  0
 19 44  1  0  0  0
 20 21  2  0  0  0
 20 37  1  0  0  0
 21 22  1  0  0  0
 22 23  1  0  0  0
 22 35  2  0  0  0
 23 24  1  0  0  0
 24 25  1  0  0  0
 25 26  1  0  0  0
 25 45  1  0  0  0
 26 27  2  0  0  0
 26 28  1  0  0  0
 28 29  1  0  0  0
 28 34  1  0  0  0
 29 30  1  0  0  0
 30 31  1  0  0  0
 31 32  1  0  0  0
 31 33  1  0  0  0
 32 46  1  0  0  0
 33 34  1  0  0  0
 35 36  1  0  0  0
 36 37  2  0  0  0
 39 40  2  0  0  0
M  END
>  <AUTHOR>
    GENERATED BY OPEN BABEL 2.3.2

>  <CHROM.1>
56.06597319,168.90387577,-36.64240957,108.82584598,-60.78113640,-10.12081708
65.33670994,-106.28387317,-122.26172419,37.22490377,163.73470114,-104.92794992
166.74516737,-175.60487655,-10.63152796,-28.09142954,-1.18697336,-0.94626414
-0.28169980,0.19310922

>  <COMPND>
    UNNAMED

>  <MASTER>
        0    0    0    0    0    0    0    0   74    0   74    0

>  <Name>
ligands/mol9.pdb

>  <RI>
1.7882e+07

>  <Rbt.Current_Directory>
/home/rodrigo/Desktop/Rodrigo/Proyectos/test_OCONDOR/OCONDOR

>  <Rbt.Executable>
rbdock ($Id: //depot/dev/client3/rdock/2013.1/src/exe/rbdock.cxx#4 $)

>  <Rbt.Library>
libRbt.so (2013.1, Build901 2013/11/27)

>  <Rbt.Parameter_File>
dock.prm

>  <Rbt.Receptor>
rdock.prm

>  <SCORE>
-14.8312

>  <SCORE.INTER>
-16.178

>  <SCORE.INTER.CONST>
1

>  <SCORE.INTER.POLAR>
-2.50123

>  <SCORE.INTER.REPUL>
0.0666487

>  <SCORE.INTER.ROT>
13

>  <SCORE.INTER.VDW>
-26.407

>  <SCORE.INTER.norm>
-0.40445

>  <SCORE.INTRA>
1.34683

>  <SCORE.INTRA.DIHEDRAL>
1.43036

>  <SCORE.INTRA.DIHEDRAL.0>
10.0128

>  <SCORE.INTRA.POLAR>
0.000487999

>  <SCORE.INTRA.POLAR.0>
-0.000487999

>  <SCORE.INTRA.REPUL>
0

>  <SCORE.INTRA.REPUL.0>
0

>  <SCORE.INTRA.VDW>
0.629988

>  <SCORE.INTRA.VDW.0>
-4.23318

>  <SCORE.INTRA.norm>
0.0336707

>  <SCORE.RESTR>
0

>  <SCORE.RESTR.CAVITY>
0

>  <SCORE.RESTR.norm>
0

>  <SCORE.SYSTEM>
0

>  <SCORE.SYSTEM.CONST>
0

>  <SCORE.SYSTEM.DIHEDRAL>
0

>  <SCORE.SYSTEM.norm>
0

>  <SCORE.heavy>
40

>  <SCORE.norm>
-0.370779

$$$$
ligands/mol9.pdb
  rDOCK(R)          3D
libRbt.so/2013.1/901 2013/11/27
 46 49  0  0  0  0  0  0  0  0999 V2000
   -5.2460  -33.6973    0.0141 N   0  0  0  0  0  0
   -6.6658  -34.5964   -0.0996 S   0  0  0  0  0  0
   -6.3998  -35.6993   -0.9886 O   0  0  0  0  0  0
   -7.1628  -34.7945    1.2474 O   0  0  0  0  0  0
   -7.7323  -33.4427   -0.9234 C   0  0  0  0  0  0
   -7.3370  -32.1198   -1.1214 C   0  0  0  0  0  0
   -8.1919  -31.2342   -1.7954 C   0  0  0  0  0  0
   -9.4608  -31.6508   -2.2475 C   0  0  0  0  0  0
  -10.3995  -30.6913   -2.9781 C   0  0  0  0  0  0
  -11.8793  -30.8080   -2.6262 C   0  0  0  0  0  0
  -12.7770  -31.4906   -3.4626 C   0  0  0  0  0  0
  -14.1553  -31.4449   -3.2425 C   0  0  0  0  0  0
  -14.6575  -30.8050   -2.1136 C   0  0  0  0  0  0
  -13.7713  -30.2692   -1.1783 C   0  0  0  0  0  0
  -14.2251  -29.7823    0.0624 N   0  0  0  0  0  0
  -13.7571  -28.5891    0.6029 C   0  0  0  0  0  0
  -12.5670  -28.2949    0.7109 O   0  0  0  0  0  0
  -14.8583  -27.6576    1.1378 C   0  0  0  0  0  0
  -14.1705  -26.7956    2.5985 S   0  0  0  0  0  0
  -15.4458  -26.7703    0.0556 C   0  0  0  0  0  0
  -15.7332  -25.4041    0.1875 C   0  0  0  0  0  0
  -16.2939  -24.6832   -0.8771 C   0  0  0  0  0  0
  -16.7003  -23.2459   -0.7019 C   0  0  0  0  0  0
  -15.7859  -22.2194   -1.3684 C   0  0  0  0  0  0
  -14.5772  -22.0416   -0.5836 N   0  0  0  0  0  0
  -14.1051  -20.7996   -0.2257 C   0  0  0  0  0  0
  -14.6764  -19.7605   -0.5375 O   0  0  0  0  0  0
  -12.8290  -20.8563    0.6235 C   0  0  0  0  0  0
  -11.6738  -21.5591   -0.1042 C   0  0  0  0  0  0
  -11.1247  -20.7190   -1.2585 C   0  0  0  0  0  0
  -10.7135  -19.3176   -0.8122 C   0  0  0  0  0  0
   -9.5461  -19.4269   -0.0019 O   0  0  0  0  0  0
  -11.8070  -18.6051   -0.0185 C   0  0  0  0  0  0
  -12.3856  -19.4702    1.1048 C   0  0  0  0  0  0
  -16.5321  -25.3736   -2.0590 C   0  0  0  0  0  0
  -16.2824  -26.6924   -2.2235 N   0  0  0  0  0  0
  -15.7822  -27.3601   -1.1637 C   0  0  0  0  0  0
  -12.3924  -30.2620   -1.4362 C   0  0  0  0  0  0
   -9.8553  -32.9687   -1.9637 C   0  0  0  0  0  0
   -8.9886  -33.8701   -1.3383 C   0  0  0  0  0  0
   -5.3854  -32.9087    0.6466 H   0  0  0  0  0  0
   -4.3971  -34.2365    0.2013 H   0  0  0  0  0  0
  -14.5239  -30.4766    0.7376 H   0  0  0  0  0  0
  -13.2924  -26.0545    1.9066 H   0  0  0  0  0  0
  -14.0796  -22.8597   -0.2569 H   0  0  0  0  0  0
   -8.8216  -19.7165   -0.5850 H   0  0  0  0  0  0
  1  2  1  0  0  0
  1 41  1  0  0  0
  1 42  1  0  0  0
  2  3  2  0  0  0
  2  4  2  0  0  0
  2  5  1  0  0  0
  5  6  2  0  0  0
  5 40  1  0  0  0
  6  7  1  0  0  0
  7  8  2  0  0  0
  8  9  1  0  0  0
  8 39  1  0  0  0
  9 10  1  0  0  0
 10 11  2  0  0  0
 10 38  1  0  0  0
 11 12  1  0  0  0
 12 13  2  0  0  0
 13 14  1  0  0  0
 14 15  1  0  0  0
 14 38  2  0  0  0
 15 16  1  0  0  0
 15 43  1  0  0  0
 16 17  2  0  0  0
 16 18  1  0  0  0
 18 19  1  0  0  0
 18 20  1  0  0  0
 19 44  1  0  0  0
 20 21  2  0  0  0
 20 37  1  0  0  0
 21 22  1  0  0  0
 22 23  1  0  0  0
 22 35  2  0  0  0
 23 24  1  0  0  0
 24 25  1  0  0  0
 25 26  1  0  0  0
 25 45  1  0  0  0
 26 27  2  0  0  0
 26 28  1  0  0  0
 28 29  1  0  0  0
 28 34  1  0  0  0
 29 30  1  0  0  0
 30 31  1  0  0  0
 31 32  1  0  0  0
 31 33  1  0  0  0
 32 46  1  0  0  0
 33 34  1  0  0  0
 35 36  1  0  0  0
 36 37  2  0  0  0
 39 40  2  0  0  0
M  END
>  <AUTHOR>
    GENERATED BY OPEN BABEL 2.3.2

>  <CHROM.1>
-179.26133542,-8.64031314,-140.66360669,-100.86446176,-136.80055380,-49.84220657
145.71298075,68.99180620,-136.66582886,106.29166287,-76.83506727,-130.39284276
59.65998624,68.00796057,-12.02348304,-27.53713658,-0.60749941,-1.14735101
-0.10254071,0.10154377

>  <COMPND>
    UNNAMED

>  <MASTER>
        0    0    0    0    0    0    0    0   74    0   74    0

>  <Name>
ligands/mol9.pdb

>  <RI>
1.7882e+07

>  <Rbt.Current_Directory>
/home/rodrigo/Desktop/Rodrigo/Proyectos/test_OCONDOR/OCONDOR

>  <Rbt.Executable>
rbdock ($Id: //depot/dev/client3/rdock/2013.1/src/exe/rbdock.cxx#4 $)

>  <Rbt.Library>
libRbt.so (2013.1, Build901 2013/11/27)

>  <Rbt.Parameter_File>
dock.prm

>  <Rbt.Receptor>
rdock.prm

>  <SCORE>
-16.2984

>  <SCORE.INTER>
-15.7794

>  <SCORE.INTER.CONST>
1

>  <SCORE.INTER.POLAR>
-0.833575

>  <SCORE.INTER.REPUL>
0.175946

>  <SCORE.INTER.ROT>
13

>  <SCORE.INTER.VDW>
-32.2249

>  <SCORE.INTER.norm>
-0.394484

>  <SCORE.INTRA>
-0.519

>  <SCORE.INTRA.DIHEDRAL>
-0.319842

>  <SCORE.INTRA.DIHEDRAL.0>
10.0128

>  <SCORE.INTRA.POLAR>
0.000487999

>  <SCORE.INTRA.POLAR.0>
-0.000487999

>  <SCORE.INTRA.REPUL>
0

>  <SCORE.INTRA.REPUL.0>
0

>  <SCORE.INTRA.VDW>
-0.360739

>  <SCORE.INTRA.VDW.0>
-4.23318

>  <SCORE.INTRA.norm>
-0.012975

>  <SCORE.RESTR>
0

>  <SCORE.RESTR.CAVITY>
0

>  <SCORE.RESTR.norm>
0

>  <SCORE.SYSTEM>
0

>  <SCORE.SYSTEM.CONST>
0

>  <SCORE.SYSTEM.DIHEDRAL>
0

>  <SCORE.SYSTEM.norm>
0

>  <SCORE.heavy>
40

>  <SCORE.norm>
-0.407459

$$$$
ligands/mol9.pdb
  rDOCK(R)          3D
libRbt.so/2013.1/901 2013/11/27
 46 49  0  0  0  0  0  0  0  0999 V2000
  -14.4686  -21.3981   -3.2528 N   0  0  0  0  0  0
  -15.4305  -21.0179   -1.9234 S   0  0  0  0  0  0
  -14.7802  -19.9385   -1.2237 O   0  0  0  0  0  0
  -16.7986  -20.9194   -2.3919 O   0  0  0  0  0  0
  -15.2765  -22.4990   -0.9592 C   0  0  0  0  0  0
  -16.3998  -23.2580   -0.6310 C   0  0  0  0  0  0
  -16.2462  -24.4369    0.1147 C   0  0  0  0  0  0
  -14.9767  -24.8508    0.5677 C   0  0  0  0  0  0
  -14.8017  -26.1308    1.3840 C   0  0  0  0  0  0
  -14.5323  -27.4012    0.5837 C   0  0  0  0  0  0
  -15.5660  -28.0750   -0.0864 C   0  0  0  0  0  0
  -15.3623  -29.3299   -0.6642 C   0  0  0  0  0  0
  -14.0880  -29.8885   -0.6802 C   0  0  0  0  0  0
  -13.0129  -29.1578   -0.1729 C   0  0  0  0  0  0
  -11.6864  -29.6003   -0.3375 N   0  0  0  0  0  0
  -10.9799  -30.2134    0.6920 C   0  0  0  0  0  0
  -10.7238  -29.6814    1.7717 O   0  0  0  0  0  0
  -10.4623  -31.6229    0.3572 C   0  0  0  0  0  0
  -11.1699  -32.7646    1.6005 S   0  0  0  0  0  0
  -10.6898  -31.9960   -1.0963 C   0  0  0  0  0  0
   -9.6846  -32.2565   -2.0387 C   0  0  0  0  0  0
  -10.0104  -32.5762   -3.3650 C   0  0  0  0  0  0
   -8.9333  -32.7509   -4.3999 C   0  0  0  0  0  0
   -8.2979  -34.1390   -4.4579 C   0  0  0  0  0  0
   -7.8154  -34.5239   -3.1435 N   0  0  0  0  0  0
   -6.5546  -34.2016   -2.6961 C   0  0  0  0  0  0
   -5.7570  -33.5614   -3.3724 O   0  0  0  0  0  0
   -6.2733  -34.6889   -1.2692 C   0  0  0  0  0  0
   -4.7786  -34.6431   -0.9203 C   0  0  0  0  0  0
   -4.2684  -33.2100   -0.7607 C   0  0  0  0  0  0
   -5.0874  -32.4116    0.2512 C   0  0  0  0  0  0
   -4.8166  -32.9224    1.5538 O   0  0  0  0  0  0
   -6.5900  -32.4878   -0.0125 C   0  0  0  0  0  0
   -7.0852  -33.9221   -0.2192 C   0  0  0  0  0  0
  -11.3591  -32.6386   -3.6927 C   0  0  0  0  0  0
  -12.3585  -32.3817   -2.8187 N   0  0  0  0  0  0
  -12.0041  -32.0372   -1.5638 C   0  0  0  0  0  0
  -13.2336  -27.9269    0.4629 C   0  0  0  0  0  0
  -13.8791  -24.0220    0.2825 C   0  0  0  0  0  0
  -14.0178  -22.8737   -0.5030 C   0  0  0  0  0  0
  -14.5330  -20.6560   -3.9502 H   0  0  0  0  0  0
  -13.5107  -21.6840   -3.0358 H   0  0  0  0  0  0
  -11.1218  -29.0934   -1.0093 H   0  0  0  0  0  0
  -10.3415  -33.7825    1.3238 H   0  0  0  0  0  0
   -8.4381  -35.0178   -2.5175 H   0  0  0  0  0  0
   -5.3122  -32.3698    2.1845 H   0  0  0  0  0  0
  1  2  1  0  0  0
  1 41  1  0  0  0
  1 42  1  0  0  0
  2  3  2  0  0  0
  2  4  2  0  0  0
  2  5  1  0  0  0
  5  6  2  0  0  0
  5 40  1  0  0  0
  6  7  1  0  0  0
  7  8  2  0  0  0
  8  9  1  0  0  0
  8 39  1  0  0  0
  9 10  1  0  0  0
 10 11  2  0  0  0
 10 38  1  0  0  0
 11 12  1  0  0  0
 12 13  2  0  0  0
 13 14  1  0  0  0
 14 15  1  0  0  0
 14 38  2  0  0  0
 15 16  1  0  0  0
 15 43  1  0  0  0
 16 17  2  0  0  0
 16 18  1  0  0  0
 18 19  1  0  0  0
 18 20  1  0  0  0
 19 44  1  0  0  0
 20 21  2  0  0  0
 20 37  1  0  0  0
 21 22  1  0  0  0
 22 23  1  0  0  0
 22 35  2  0  0  0
 23 24  1  0  0  0
 24 25  1  0  0  0
 25 26  1  0  0  0
 25 45  1  0  0  0
 26 27  2  0  0  0
 26 28  1  0  0  0
 28 29  1  0  0  0
 28 34  1  0  0  0
 29 30  1  0  0  0
 30 31  1  0  0  0
 31 32  1  0  0  0
 31 33  1  0  0  0
 32 46  1  0  0  0
 33 34  1  0  0  0
 35 36  1  0  0  0
 36 37  2  0  0  0
 39 40  2  0  0  0
M  END
>  <AUTHOR>
    GENERATED BY OPEN BABEL 2.3.2

>  <CHROM.1>
-71.56403202,-120.26759489,90.53771282,-77.61105759,-102.29646536,-60.74464845
-121.89103742,-165.24737548,116.45624098,84.60104032,-53.67106749,-87.89410191
165.46259534,177.11107846,-11.31545171,-29.18337671,-0.93468123,-2.30496992
-0.44999730,2.79381009

>  <COMPND>
    UNNAMED

>  <MASTER>
        0    0    0    0    0    0    0    0   74    0   74    0

>  <Name>
ligands/mol9.pdb

>  <RI>
1.7882e+07

>  <Rbt.Current_Directory>
/home/rodrigo/Desktop/Rodrigo/Proyectos/test_OCONDOR/OCONDOR

>  <Rbt.Executable>
rbdock ($Id: //depot/dev/client3/rdock/2013.1/src/exe/rbdock.cxx#4 $)

>  <Rbt.Library>
libRbt.so (2013.1, Build901 2013/11/27)

>  <Rbt.Parameter_File>
dock.prm

>  <Rbt.Receptor>
rdock.prm

>  <SCORE>
-18.1155

>  <SCORE.INTER>
-15.0532

>  <SCORE.INTER.CONST>
1

>  <SCORE.INTER.POLAR>
-1.49088

>  <SCORE.INTER.REPUL>
0.104136

>  <SCORE.INTER.ROT>
13

>  <SCORE.INTER.VDW>
-28.9049

>  <SCORE.INTER.norm>
-0.376329

>  <SCORE.INTRA>
-3.06231

>  <SCORE.INTRA.DIHEDRAL>
-1.2965

>  <SCORE.INTRA.DIHEDRAL.0>
10.0128

>  <SCORE.INTRA.POLAR>
0.000487999

>  <SCORE.INTRA.POLAR.0>
-0.000487999

>  <SCORE.INTRA.REPUL>
0

>  <SCORE.INTRA.REPUL.0>
0

>  <SCORE.INTRA.VDW>
-2.41572

>  <SCORE.INTRA.VDW.0>
-4.23318

>  <SCORE.INTRA.norm>
-0.0765577

>  <SCORE.RESTR>
0

>  <SCORE.RESTR.CAVITY>
0

>  <SCORE.RESTR.norm>
0

>  <SCORE.SYSTEM>
0

>  <SCORE.SYSTEM.CONST>
0

>  <SCORE.SYSTEM.DIHEDRAL>
0

>  <SCORE.SYSTEM.norm>
0

>  <SCORE.heavy>
40

>  <SCORE.norm>
-0.452887

$$$$
ligands/mol9.pdb
  rDOCK(R)          3D
libRbt.so/2013.1/901 2013/11/27
 46 49  0  0  0  0  0  0  0  0999 V2000
  -17.9631  -21.4058    0.6451 N   0  0  0  0  0  0
  -18.0807  -21.6092   -1.0227 S   0  0  0  0  0  0
  -19.3771  -22.1793   -1.2906 O   0  0  0  0  0  0
  -17.6379  -20.3759   -1.6424 O   0  0  0  0  0  0
  -16.8426  -22.8488   -1.3010 C   0  0  0  0  0  0
  -15.4924  -22.5065   -1.3741 C   0  0  0  0  0  0
  -14.5324  -23.5106   -1.5735 C   0  0  0  0  0  0
  -14.9128  -24.8587   -1.7352 C   0  0  0  0  0  0
  -13.8740  -25.9572   -1.9573 C   0  0  0  0  0  0
  -14.4079  -27.3861   -1.9792 C   0  0  0  0  0  0
  -15.1628  -27.8998   -0.9126 C   0  0  0  0  0  0
  -15.4965  -29.2540   -0.8427 C   0  0  0  0  0  0
  -15.1761  -30.1036   -1.8972 C   0  0  0  0  0  0
  -14.5791  -29.5780   -3.0436 C   0  0  0  0  0  0
  -14.4094  -30.3594   -4.2025 N   0  0  0  0  0  0
  -13.1534  -30.7642   -4.6424 C   0  0  0  0  0  0
  -12.3165  -30.0126   -5.1414 O   0  0  0  0  0  0
  -12.8942  -32.2759   -4.5234 C   0  0  0  0  0  0
  -12.5429  -32.8953   -6.2095 S   0  0  0  0  0  0
  -11.8604  -32.6070   -3.4626 C   0  0  0  0  0  0
  -10.7097  -33.3839   -3.6594 C   0  0  0  0  0  0
   -9.8286  -33.6418   -2.5988 C   0  0  0  0  0  0
   -8.6529  -34.5613   -2.7831 C   0  0  0  0  0  0
   -7.3349  -33.8773   -3.1426 C   0  0  0  0  0  0
   -7.5386  -32.9394   -4.2322 N   0  0  0  0  0  0
   -8.0211  -31.6666   -4.0306 C   0  0  0  0  0  0
   -8.3037  -31.2356   -2.9180 O   0  0  0  0  0  0
   -8.1295  -30.8462   -5.3220 C   0  0  0  0  0  0
   -9.1494  -29.7042   -5.2048 C   0  0  0  0  0  0
   -8.6587  -28.5867   -4.2828 C   0  0  0  0  0  0
   -7.2893  -28.0521   -4.6966 C   0  0  0  0  0  0
   -7.4375  -27.3275   -5.9149 O   0  0  0  0  0  0
   -6.2578  -29.1607   -4.8976 C   0  0  0  0  0  0
   -6.7737  -30.2992   -5.7823 C   0  0  0  0  0  0
  -10.1368  -33.0841   -1.3642 C   0  0  0  0  0  0
  -11.2418  -32.3410   -1.1289 N   0  0  0  0  0  0
  -12.0858  -32.1501   -2.1634 C   0  0  0  0  0  0
  -14.1890  -28.2309   -3.0819 C   0  0  0  0  0  0
  -16.2858  -25.1552   -1.7312 C   0  0  0  0  0  0
  -17.2437  -24.1677   -1.4820 C   0  0  0  0  0  0
  -18.5575  -22.0862    1.1196 H   0  0  0  0  0  0
  -17.0113  -21.3537    1.0164 H   0  0  0  0  0  0
  -15.1080  -30.2477   -4.9283 H   0  0  0  0  0  0
  -12.6254  -34.1946   -5.8870 H   0  0  0  0  0  0
   -7.2853  -33.2164   -5.1718 H   0  0  0  0  0  0
   -7.8976  -26.4970   -5.6974 H   0  0  0  0  0  0
  1  2  1  0  0  0
  1 41  1  0  0  0
  1 42  1  0  0  0
  2  3  2  0  0  0
  2  4  2  0  0  0
  2  5  1  0  0  0
  5  6  2  0  0  0
  5 40  1  0  0  0
  6  7  1  0  0  0
  7  8  2  0  0  0
  8  9  1  0  0  0
  8 39  1  0  0  0
  9 10  1  0  0  0
 10 11  2  0  0  0
 10 38  1  0  0  0
 11 12  1  0  0  0
 12 13  2  0  0  0
 13 14  1  0  0  0
 14 15  1  0  0  0
 14 38  2  0  0  0
 15 16  1  0  0  0
 15 43  1  0  0  0
 16 17  2  0  0  0
 16 18  1  0  0  0
 18 19  1  0  0  0
 18 20  1  0  0  0
 19 44  1  0  0  0
 20 21  2  0  0  0
 20 37  1  0  0  0
 21 22  1  0  0  0
 22 23  1  0  0  0
 22 35  2  0  0  0
 23 24  1  0  0  0
 24 25  1  0  0  0
 25 26  1  0  0  0
 25 45  1  0  0  0
 26 27  2  0  0  0
 26 28  1  0  0  0
 28 29  1  0  0  0
 28 34  1  0  0  0
 29 30  1  0  0  0
 30 31  1  0  0  0
 31 32  1  0  0  0
 31 33  1  0  0  0
 32 46  1  0  0  0
 33 34  1  0  0  0
 35 36  1  0  0  0
 36 37  2  0  0  0
 39 40  2  0  0  0
M  END
>  <AUTHOR>
    GENERATED BY OPEN BABEL 2.3.2

>  <CHROM.1>
26.97028482,-80.22171940,174.18213872,-55.01622030,-111.13044636,-71.43414313
120.49468208,-168.45992747,-126.69426119,94.60111958,-48.59209174,82.17346313
156.93383228,72.15861285,-12.56250314,-28.56878319,-3.02883528,-2.31645440
-0.32259428,-3.10877606

>  <COMPND>
    UNNAMED

>  <MASTER>
        0    0    0    0    0    0    0    0   74    0   74    0

>  <Name>
ligands/mol9.pdb

>  <RI>
1.7882e+07

>  <Rbt.Current_Directory>
/home/rodrigo/Desktop/Rodrigo/Proyectos/test_OCONDOR/OCONDOR

>  <Rbt.Executable>
rbdock ($Id: //depot/dev/client3/rdock/2013.1/src/exe/rbdock.cxx#4 $)

>  <Rbt.Library>
libRbt.so (2013.1, Build901 2013/11/27)

>  <Rbt.Parameter_File>
dock.prm

>  <Rbt.Receptor>
rdock.prm

>  <SCORE>
-15.4278

>  <SCORE.INTER>
-13.234

>  <SCORE.INTER.CONST>
1

>  <SCORE.INTER.POLAR>
-1.63093

>  <SCORE.INTER.REPUL>
0.354912

>  <SCORE.INTER.ROT>
13

>  <SCORE.INTER.VDW>
-27.8634

>  <SCORE.INTER.norm>
-0.330849

>  <SCORE.INTRA>
-2.19378

>  <SCORE.INTRA.DIHEDRAL>
0.977005

>  <SCORE.INTRA.DIHEDRAL.0>
10.0128

>  <SCORE.INTRA.POLAR>
0.000487999

>  <SCORE.INTRA.POLAR.0>
-0.000487999

>  <SCORE.INTRA.REPUL>
0

>  <SCORE.INTRA.REPUL.0>
0

>  <SCORE.INTRA.VDW>
-2.68394

>  <SCORE.INTRA.VDW.0>
-4.23318

>  <SCORE.INTRA.norm>
-0.0548445

>  <SCORE.RESTR>
0

>  <SCORE.RESTR.CAVITY>
0

>  <SCORE.RESTR.norm>
0

>  <SCORE.SYSTEM>
0

>  <SCORE.SYSTEM.CONST>
0

>  <SCORE.SYSTEM.DIHEDRAL>
0

>  <SCORE.SYSTEM.norm>
0

>  <SCORE.heavy>
40

>  <SCORE.norm>
-0.385694

$$$$
ligands/mol9.pdb
  rDOCK(R)          3D
libRbt.so/2013.1/901 2013/11/27
 46 49  0  0  0  0  0  0  0  0999 V2000
  -10.6615  -22.9154   -5.0578 N   0  0  0  0  0  0
  -10.9152  -21.5025   -4.1767 S   0  0  0  0  0  0
   -9.7512  -21.3026   -3.3505 O   0  0  0  0  0  0
  -11.3857  -20.4920   -5.1032 O   0  0  0  0  0  0
  -12.2732  -21.9870   -3.1432 C   0  0  0  0  0  0
  -13.5099  -22.3185   -3.6969 C   0  0  0  0  0  0
  -14.5604  -22.7192   -2.8571 C   0  0  0  0  0  0
  -14.3972  -22.7605   -1.4572 C   0  0  0  0  0  0
  -15.5377  -23.1913   -0.5357 C   0  0  0  0  0  0
  -15.5885  -24.6752   -0.1855 C   0  0  0  0  0  0
  -15.5809  -25.1110    1.1493 C   0  0  0  0  0  0
  -15.4426  -26.4623    1.4730 C   0  0  0  0  0  0
  -15.4206  -27.4197    0.4634 C   0  0  0  0  0  0
  -15.6010  -27.0222   -0.8620 C   0  0  0  0  0  0
  -15.7733  -27.9677   -1.8910 N   0  0  0  0  0  0
  -14.7704  -28.8643   -2.2450 C   0  0  0  0  0  0
  -14.0139  -28.7171   -3.2044 O   0  0  0  0  0  0
  -14.7096  -30.1287   -1.3709 C   0  0  0  0  0  0
  -15.2155  -31.5362   -2.4257 S   0  0  0  0  0  0
  -13.3799  -30.2768   -0.6542 C   0  0  0  0  0  0
  -12.5283  -31.3880   -0.7362 C   0  0  0  0  0  0
  -11.3265  -31.4252   -0.0138 C   0  0  0  0  0  0
  -10.4658  -32.6585   -0.0176 C   0  0  0  0  0  0
   -9.2767  -32.6258   -0.9763 C   0  0  0  0  0  0
   -8.6382  -33.9290   -1.0263 N   0  0  0  0  0  0
   -7.8978  -34.3475   -2.1080 C   0  0  0  0  0  0
   -7.7202  -33.6465   -3.0983 O   0  0  0  0  0  0
   -7.2972  -35.7474   -1.9282 C   0  0  0  0  0  0
   -6.6394  -36.2703   -3.2135 C   0  0  0  0  0  0
   -5.3456  -35.5239   -3.5428 C   0  0  0  0  0  0
   -4.3551  -35.5386   -2.3805 C   0  0  0  0  0  0
   -3.8516  -36.8638   -2.2340 O   0  0  0  0  0  0
   -4.9847  -35.0951   -1.0614 C   0  0  0  0  0  0
   -6.3044  -35.8118   -0.7621 C   0  0  0  0  0  0
  -11.0154  -30.3164    0.7634 C   0  0  0  0  0  0
  -11.8141  -29.2315    0.8806 N   0  0  0  0  0  0
  -12.9804  -29.2510    0.2035 C   0  0  0  0  0  0
  -15.6754  -25.6594   -1.1861 C   0  0  0  0  0  0
  -13.1621  -22.3476   -0.9309 C   0  0  0  0  0  0
  -12.0957  -21.9965   -1.7643 C   0  0  0  0  0  0
   -9.8769  -22.7881   -5.6976 H   0  0  0  0  0  0
  -10.6142  -23.7757   -4.5064 H   0  0  0  0  0  0
  -16.4093  -27.7114   -2.6373 H   0  0  0  0  0  0
  -16.5226  -31.2349   -2.4208 H   0  0  0  0  0  0
   -8.7094  -34.5414   -0.2241 H   0  0  0  0  0  0
   -3.2225  -36.8481   -1.4905 H   0  0  0  0  0  0
  1  2  1  0  0  0
  1 41  1  0  0  0
  1 42  1  0  0  0
  2  3  2  0  0  0
  2  4  2  0  0  0
  2  5  1  0  0  0
  5  6  2  0  0  0
  5 40  1  0  0  0
  6  7  1  0  0  0
  7  8  2  0  0  0
  8  9  1  0  0  0
  8 39  1  0  0  0
  9 10  1  0  0  0
 10 11  2  0  0  0
 10 38  1  0  0  0
 11 12  1  0  0  0
 12 13  2  0  0  0
 13 14  1  0  0  0
 14 15  1  0  0  0
 14 38  2  0  0  0
 15 16  1  0  0  0
 15 43  1  0  0  0
 16 17  2  0  0  0
 16 18  1  0  0  0
 18 19  1  0  0  0
 18 20  1  0  0  0
 19 44  1  0  0  0
 20 21  2  0  0  0
 20 37  1  0  0  0
 21 22  1  0  0  0
 22 23  1  0  0  0
 22 35  2  0  0  0
 23 24  1  0  0  0
 24 25  1  0  0  0
 25 26  1  0  0  0
 25 45  1  0  0  0
 26 27  2  0  0  0
 26 28  1  0  0  0
 28 29  1  0  0  0
 28 34  1  0  0  0
 29 30  1  0  0  0
 30 31  1  0  0  0
 31 32  1  0  0  0
 31 33  1  0  0  0
 32 46  1  0  0  0
 33 34  1  0  0  0
 35 36  1  0  0  0
 36 37  2  0  0  0
 39 40  2  0  0  0
M  END
>  <AUTHOR>
    GENERATED BY OPEN BABEL 2.3.2

>  <CHROM.1>
-65.07545675,-63.86711023,91.84782498,123.97134509,-64.63977602,-99.43889884
111.68539369,-74.84425794,-123.91188941,99.17036557,-172.09187818,155.46989714
172.21024632,179.87659302,-11.52313527,-28.59693187,-1.77879928,-2.10464519
-0.35676056,2.89659211

>  <COMPND>
    UNNAMED

>  <MASTER>
        0    0    0    0    0    0    0    0   74    0   74    0

>  <Name>
ligands/mol9.pdb

>  <RI>
1.7882e+07

>  <Rbt.Current_Directory>
/home/rodrigo/Desktop/Rodrigo/Proyectos/test_OCONDOR/OCONDOR

>  <Rbt.Executable>
rbdock ($Id: //depot/dev/client3/rdock/2013.1/src/exe/rbdock.cxx#4 $)

>  <Rbt.Library>
libRbt.so (2013.1, Build901 2013/11/27)

>  <Rbt.Parameter_File>
dock.prm

>  <Rbt.Receptor>
rdock.prm

>  <SCORE>
-12.7677

>  <SCORE.INTER>
-11.5135

>  <SCORE.INTER.CONST>
1

>  <SCORE.INTER.POLAR>
-0.938083

>  <SCORE.INTER.REPUL>
0

>  <SCORE.INTER.ROT>
13

>  <SCORE.INTER.VDW>
-26.724

>  <SCORE.INTER.norm>
-0.287838

>  <SCORE.INTRA>
-1.25425

>  <SCORE.INTRA.DIHEDRAL>
-1.53386

>  <SCORE.INTRA.DIHEDRAL.0>
10.0128

>  <SCORE.INTRA.POLAR>
0.000487999

>  <SCORE.INTRA.POLAR.0>
-0.000487999

>  <SCORE.INTRA.REPUL>
0

>  <SCORE.INTRA.REPUL.0>
0

>  <SCORE.INTRA.VDW>
-0.488975

>  <SCORE.INTRA.VDW.0>
-4.23318

>  <SCORE.INTRA.norm>
-0.0313562

>  <SCORE.RESTR>
0

>  <SCORE.RESTR.CAVITY>
0

>  <SCORE.RESTR.norm>
0

>  <SCORE.SYSTEM>
0

>  <SCORE.SYSTEM.CONST>
0

>  <SCORE.SYSTEM.DIHEDRAL>
0

>  <SCORE.SYSTEM.norm>
0

>  <SCORE.heavy>
40

>  <SCORE.norm>
-0.319194

$$$$
ligands/mol9.pdb
  rDOCK(R)          3D
libRbt.so/2013.1/901 2013/11/27
 46 49  0  0  0  0  0  0  0  0999 V2000
   -8.0492  -23.8198   -4.1908 N   0  0  0  0  0  0
   -9.1527  -22.8765   -3.3368 S   0  0  0  0  0  0
   -8.5010  -21.6260   -3.0385 O   0  0  0  0  0  0
  -10.4156  -22.9378   -4.0454 O   0  0  0  0  0  0
   -9.3088  -23.8117   -1.8374 C   0  0  0  0  0  0
  -10.3241  -24.7562   -1.6866 C   0  0  0  0  0  0
  -10.4107  -25.4971   -0.4980 C   0  0  0  0  0  0
   -9.5073  -25.2791    0.5624 C   0  0  0  0  0  0
   -9.5979  -26.0785    1.8617 C   0  0  0  0  0  0
  -11.0014  -26.2816    2.4240 C   0  0  0  0  0  0
  -11.4318  -25.6033    3.5757 C   0  0  0  0  0  0
  -12.6413  -25.9199    4.1976 C   0  0  0  0  0  0
  -13.4998  -26.8474    3.6154 C   0  0  0  0  0  0
  -13.1697  -27.4056    2.3799 C   0  0  0  0  0  0
  -14.0890  -28.1997    1.6681 N   0  0  0  0  0  0
  -13.9879  -28.3941    0.2945 C   0  0  0  0  0  0
  -13.7448  -27.5018   -0.5175 O   0  0  0  0  0  0
  -14.2764  -29.8328   -0.1676 C   0  0  0  0  0  0
  -15.0557  -29.7207   -1.8198 S   0  0  0  0  0  0
  -13.0579  -30.7320   -0.0648 C   0  0  0  0  0  0
  -11.8722  -30.5863   -0.7992 C   0  0  0  0  0  0
  -10.8120  -31.4901   -0.6359 C   0  0  0  0  0  0
   -9.5837  -31.3973   -1.4988 C   0  0  0  0  0  0
   -8.3094  -31.9815   -0.8914 C   0  0  0  0  0  0
   -7.1761  -31.7232   -1.7617 N   0  0  0  0  0  0
   -5.8741  -31.8805   -1.3449 C   0  0  0  0  0  0
   -5.5828  -32.2567   -0.2148 O   0  0  0  0  0  0
   -4.8446  -31.5759   -2.4404 C   0  0  0  0  0  0
   -3.4000  -31.6930   -1.9331 C   0  0  0  0  0  0
   -3.0006  -33.1446   -1.6629 C   0  0  0  0  0  0
   -3.2251  -34.0439   -2.8766 C   0  0  0  0  0  0
   -2.2681  -33.7006   -3.8753 O   0  0  0  0  0  0
   -4.6290  -33.9068   -3.4625 C   0  0  0  0  0  0
   -5.0404  -32.4486   -3.6852 C   0  0  0  0  0  0
  -10.9831  -32.5132    0.2883 C   0  0  0  0  0  0
  -12.1141  -32.6971    1.0064 N   0  0  0  0  0  0
  -13.1263  -31.8322    0.7911 C   0  0  0  0  0  0
  -11.9256  -27.1324    1.7919 C   0  0  0  0  0  0
   -8.5455  -24.2678    0.4039 C   0  0  0  0  0  0
   -8.4215  -23.5618   -0.7965 C   0  0  0  0  0  0
   -8.4622  -24.7282   -4.4038 H   0  0  0  0  0  0
   -7.6086  -23.3638   -4.9936 H   0  0  0  0  0  0
  -15.0283  -28.2504    2.0454 H   0  0  0  0  0  0
  -16.1119  -29.0008   -1.4132 H   0  0  0  0  0  0
   -7.3463  -31.4504   -2.7210 H   0  0  0  0  0  0
   -2.3755  -34.3389   -4.6031 H   0  0  0  0  0  0
  1  2  1  0  0  0
  1 41  1  0  0  0
  1 42  1  0  0  0
  2  3  2  0  0  0
  2  4  2  0  0  0
  2  5  1  0  0  0
  5  6  2  0  0  0
  5 40  1  0  0  0
  6  7  1  0  0  0
  7  8  2  0  0  0
  8  9  1  0  0  0
  8 39  1  0  0  0
  9 10  1  0  0  0
 10 11  2  0  0  0
 10 38  1  0  0  0
 11 12  1  0  0  0
 12 13  2  0  0  0
 13 14  1  0  0  0
 14 15  1  0  0  0
 14 38  2  0  0  0
 15 16  1  0  0  0
 15 43  1  0  0  0
 16 17  2  0  0  0
 16 18  1  0  0  0
 18 19  1  0  0  0
 18 20  1  0  0  0
 19 44  1  0  0  0
 20 21  2  0  0  0
 20 37  1  0  0  0
 21 22  1  0  0  0
 22 23  1  0  0  0
 22 35  2  0  0  0
 23 24  1  0  0  0
 24 25  1  0  0  0
 25 26  1  0  0  0
 25 45  1  0  0  0
 26 27  2  0  0  0
 26 28  1  0  0  0
 28 29  1  0  0  0
 28 34  1  0  0  0
 29 30  1  0  0  0
 30 31  1  0  0  0
 31 32  1  0  0  0
 31 33  1  0  0  0
 32 46  1  0  0  0
 33 34  1  0  0  0
 35 36  1  0  0  0
 36 37  2  0  0  0
 39 40  2  0  0  0
M  END
>  <AUTHOR>
    GENERATED BY OPEN BABEL 2.3.2

>  <CHROM.1>
178.58951469,-93.71801749,-43.09712258,-107.84321901,158.07489562,-43.92955017
147.07046513,-60.19580086,-64.67560265,155.01891293,-174.79298717,165.92255854
177.25822557,174.84233935,-9.62564028,-28.53428436,-0.82539353,-2.44507068
-0.44474862,3.00142864

>  <COMPND>
    UNNAMED

>  <MASTER>
        0    0    0    0    0    0    0    0   74    0   74    0

>  <Name>
ligands/mol9.pdb

>  <RI>
1.7882e+07

>  <Rbt.Current_Directory>
/home/rodrigo/Desktop/Rodrigo/Proyectos/test_OCONDOR/OCONDOR

>  <Rbt.Executable>
rbdock ($Id: //depot/dev/client3/rdock/2013.1/src/exe/rbdock.cxx#4 $)

>  <Rbt.Library>
libRbt.so (2013.1, Build901 2013/11/27)

>  <Rbt.Parameter_File>
dock.prm

>  <Rbt.Receptor>
rdock.prm

>  <SCORE>
-9.41206

>  <SCORE.INTER>
-9.85505

>  <SCORE.INTER.CONST>
1

>  <SCORE.INTER.POLAR>
-1.0198

>  <SCORE.INTER.REPUL>
0.0183126

>  <SCORE.INTER.ROT>
13

>  <SCORE.INTER.VDW>
-24.8793

>  <SCORE.INTER.norm>
-0.246376

>  <SCORE.INTRA>
0.442989

>  <SCORE.INTRA.DIHEDRAL>
-1.57451

>  <SCORE.INTRA.DIHEDRAL.0>
10.0128

>  <SCORE.INTRA.POLAR>
0.000487999

>  <SCORE.INTRA.POLAR.0>
-0.000487999

>  <SCORE.INTRA.REPUL>
0

>  <SCORE.INTRA.REPUL.0>
0

>  <SCORE.INTRA.VDW>
1.22858

>  <SCORE.INTRA.VDW.0>
-4.23318

>  <SCORE.INTRA.norm>
0.0110747

>  <SCORE.RESTR>
0

>  <SCORE.RESTR.CAVITY>
0

>  <SCORE.RESTR.norm>
0

>  <SCORE.SYSTEM>
0

>  <SCORE.SYSTEM.CONST>
0

>  <SCORE.SYSTEM.DIHEDRAL>
0

>  <SCORE.SYSTEM.norm>
0

>  <SCORE.heavy>
40

>  <SCORE.norm>
-0.235302

$$$$
ligands/mol9.pdb
  rDOCK(R)          3D
libRbt.so/2013.1/901 2013/11/27
 46 49  0  0  0  0  0  0  0  0999 V2000
   -7.8520  -27.8389   -4.1303 N   0  0  0  0  0  0
   -8.7407  -27.8150   -5.5609 S   0  0  0  0  0  0
   -8.2258  -26.7335   -6.3626 O   0  0  0  0  0  0
   -8.8061  -29.1765   -6.0538 O   0  0  0  0  0  0
  -10.3458  -27.3636   -4.9552 C   0  0  0  0  0  0
  -11.2721  -26.7337   -5.7863 C   0  0  0  0  0  0
  -12.5423  -26.4073   -5.2868 C   0  0  0  0  0  0
  -12.8876  -26.6755   -3.9463 C   0  0  0  0  0  0
  -14.2670  -26.3191   -3.3935 C   0  0  0  0  0  0
  -14.8393  -27.2804   -2.3564 C   0  0  0  0  0  0
  -15.8859  -26.8954   -1.5031 C   0  0  0  0  0  0
  -16.2883  -27.7007   -0.4356 C   0  0  0  0  0  0
  -15.7252  -28.9618   -0.2660 C   0  0  0  0  0  0
  -14.8071  -29.4342   -1.2047 C   0  0  0  0  0  0
  -14.3560  -30.7677   -1.1782 N   0  0  0  0  0  0
  -13.0154  -31.0899   -0.9944 C   0  0  0  0  0  0
  -12.2622  -31.4667   -1.8916 O   0  0  0  0  0  0
  -12.5353  -31.0075    0.4648 C   0  0  0  0  0  0
  -11.2918  -32.3302    0.6970 S   0  0  0  0  0  0
  -12.0999  -29.6070    0.8556 C   0  0  0  0  0  0
  -12.6832  -28.4150    0.4023 C   0  0  0  0  0  0
  -12.1861  -27.1705    0.8167 C   0  0  0  0  0  0
  -12.7418  -25.8937    0.2488 C   0  0  0  0  0  0
  -13.7673  -25.1771    1.1257 C   0  0  0  0  0  0
  -14.5336  -24.2339    0.3310 N   0  0  0  0  0  0
  -14.0498  -22.9917   -0.0105 C   0  0  0  0  0  0
  -12.9373  -22.6005    0.3255 O   0  0  0  0  0  0
  -15.0213  -22.1779   -0.8745 C   0  0  0  0  0  0
  -14.5108  -20.7552   -1.1454 C   0  0  0  0  0  0
  -13.3159  -20.7444   -2.1003 C   0  0  0  0  0  0
  -13.6120  -21.4740   -3.4088 C   0  0  0  0  0  0
  -14.5413  -20.6958   -4.1586 O   0  0  0  0  0  0
  -14.1924  -22.8698   -3.1894 C   0  0  0  0  0  0
  -15.3571  -22.8796   -2.1952 C   0  0  0  0  0  0
  -11.1134  -27.1746    1.6996 C   0  0  0  0  0  0
  -10.5138  -28.2999    2.1500 N   0  0  0  0  0  0
  -10.9938  -29.4758    1.6964 C   0  0  0  0  0  0
  -14.3598  -28.5970   -2.2376 C   0  0  0  0  0  0
  -11.9038  -27.2417   -3.1189 C   0  0  0  0  0  0
  -10.6546  -27.6159   -3.6233 C   0  0  0  0  0  0
   -8.0985  -28.6644   -3.5835 H   0  0  0  0  0  0
   -6.8448  -27.6940   -4.2351 H   0  0  0  0  0  0
  -14.8928  -31.4364   -1.7186 H   0  0  0  0  0  0
  -11.4141  -32.3863    2.0315 H   0  0  0  0  0  0
  -15.4434  -24.5095   -0.0153 H   0  0  0  0  0  0
  -14.6614  -21.1439   -5.0150 H   0  0  0  0  0  0
  1  2  1  0  0  0
  1 41  1  0  0  0
  1 42  1  0  0  0
  2  3  2  0  0  0
  2  4  2  0  0  0
  2  5  1  0  0  0
  5  6  2  0  0  0
  5 40  1  0  0  0
  6  7  1  0  0  0
  7  8  2  0  0  0
  8  9  1  0  0  0
  8 39  1  0  0  0
  9 10  1  0  0  0
 10 11  2  0  0  0
 10 38  1  0  0  0
 11 12  1  0  0  0
 12 13  2  0  0  0
 13 14  1  0  0  0
 14 15  1  0  0  0
 14 38  2  0  0  0
 15 16  1  0  0  0
 15 43  1  0  0  0
 16 17  2  0  0  0
 16 18  1  0  0  0
 18 19  1  0  0  0
 18 20  1  0  0  0
 19 44  1  0  0  0
 20 21  2  0  0  0
 20 37  1  0  0  0
 21 22  1  0  0  0
 22 23  1  0  0  0
 22 35  2  0  0  0
 23 24  1  0  0  0
 24 25  1  0  0  0
 25 26  1  0  0  0
 25 45  1  0  0  0
 26 27  2  0  0  0
 26 28  1  0  0  0
 28 29  1  0  0  0
 28 34  1  0  0  0
 29 30  1  0  0  0
 30 31  1  0  0  0
 31 32  1  0  0  0
 31 33  1  0  0  0
 32 46  1  0  0  0
 33 34  1  0  0  0
 35 36  1  0  0  0
 36 37  2  0  0  0
 39 40  2  0  0  0
M  END
>  <AUTHOR>
    GENERATED BY OPEN BABEL 2.3.2

>  <CHROM.1>
-172.58628605,155.16853200,145.18387274,161.65435741,-118.73745340,-104.30063164
145.53340191,-158.48136992,35.21343886,99.52459077,-161.76056685,-79.81764663
175.26571828,175.69067466,-12.55506748,-26.87265345,-1.85249241,-1.01632249
0.87159802,-0.53873376

>  <COMPND>
    UNNAMED

>  <MASTER>
        0    0    0    0    0    0    0    0   74    0   74    0

>  <Name>
ligands/mol9.pdb

>  <RI>
1.7882e+07

>  <Rbt.Current_Directory>
/home/rodrigo/Desktop/Rodrigo/Proyectos/test_OCONDOR/OCONDOR

>  <Rbt.Executable>
rbdock ($Id: //depot/dev/client3/rdock/2013.1/src/exe/rbdock.cxx#4 $)

>  <Rbt.Library>
libRbt.so (2013.1, Build901 2013/11/27)

>  <Rbt.Parameter_File>
dock.prm

>  <Rbt.Receptor>
rdock.prm

>  <SCORE>
-10.8837

>  <SCORE.INTER>
-8.31557

>  <SCORE.INTER.CONST>
1

>  <SCORE.INTER.POLAR>
-0.283295

>  <SCORE.INTER.REPUL>
0

>  <SCORE.INTER.ROT>
13

>  <SCORE.INTER.VDW>
-25.7524

>  <SCORE.INTER.norm>
-0.207889

>  <SCORE.INTRA>
-2.56813

>  <SCORE.INTRA.DIHEDRAL>
0.345655

>  <SCORE.INTRA.DIHEDRAL.0>
10.0128

>  <SCORE.INTRA.POLAR>
0.000487999

>  <SCORE.INTRA.POLAR.0>
-0.000487999

>  <SCORE.INTRA.REPUL>
0

>  <SCORE.INTRA.REPUL.0>
0

>  <SCORE.INTRA.VDW>
-2.74262

>  <SCORE.INTRA.VDW.0>
-4.23318

>  <SCORE.INTRA.norm>
-0.0642033

>  <SCORE.RESTR>
0

>  <SCORE.RESTR.CAVITY>
0

>  <SCORE.RESTR.norm>
0

>  <SCORE.SYSTEM>
0

>  <SCORE.SYSTEM.CONST>
0

>  <SCORE.SYSTEM.DIHEDRAL>
0

>  <SCORE.SYSTEM.norm>
0

>  <SCORE.heavy>
40

>  <SCORE.norm>
-0.272093

$$$$
ligands/mol9.pdb
  rDOCK(R)          3D
libRbt.so/2013.1/901 2013/11/27
 46 49  0  0  0  0  0  0  0  0999 V2000
   -8.6386  -21.7045   -5.2672 N   0  0  0  0  0  0
   -9.7790  -22.7711   -4.6357 S   0  0  0  0  0  0
  -10.1088  -23.7076   -5.6805 O   0  0  0  0  0  0
   -9.2980  -23.2019   -3.3379 O   0  0  0  0  0  0
  -11.1583  -21.6837   -4.3863 C   0  0  0  0  0  0
  -12.2884  -21.7649   -5.1998 C   0  0  0  0  0  0
  -13.3739  -20.9066   -4.9661 C   0  0  0  0  0  0
  -13.3283  -19.9386   -3.9420 C   0  0  0  0  0  0
  -14.5043  -18.9973   -3.6841 C   0  0  0  0  0  0
  -15.8089  -19.6611   -3.2547 C   0  0  0  0  0  0
  -17.0548  -19.1037   -3.5844 C   0  0  0  0  0  0
  -18.2414  -19.6018   -3.0424 C   0  0  0  0  0  0
  -18.2159  -20.7413   -2.2441 C   0  0  0  0  0  0
  -17.0084  -21.4119   -2.0454 C   0  0  0  0  0  0
  -16.9658  -22.6652   -1.4052 N   0  0  0  0  0  0
  -15.7750  -23.3606   -1.2226 C   0  0  0  0  0  0
  -14.9331  -23.0843   -0.3686 O   0  0  0  0  0  0
  -15.5380  -24.4939   -2.2356 C   0  0  0  0  0  0
  -14.1453  -23.9768   -3.3045 S   0  0  0  0  0  0
  -15.3988  -25.8502   -1.5687 C   0  0  0  0  0  0
  -14.2235  -26.6128   -1.5082 C   0  0  0  0  0  0
  -14.2136  -27.8663   -0.8790 C   0  0  0  0  0  0
  -12.9828  -28.7301   -0.9067 C   0  0  0  0  0  0
  -12.4891  -29.1245   -2.2977 C   0  0  0  0  0  0
  -11.2145  -29.8131   -2.1998 N   0  0  0  0  0  0
  -10.9056  -30.9086   -2.9732 C   0  0  0  0  0  0
  -11.6812  -31.3721   -3.8021 O   0  0  0  0  0  0
   -9.4953  -31.4547   -2.7174 C   0  0  0  0  0  0
   -9.3020  -31.9161   -1.2656 C   0  0  0  0  0  0
  -10.0845  -33.1941   -0.9587 C   0  0  0  0  0  0
   -9.7596  -34.3222   -1.9354 C   0  0  0  0  0  0
   -8.4317  -34.7718   -1.6794 O   0  0  0  0  0  0
   -9.8670  -33.8889   -3.3962 C   0  0  0  0  0  0
   -9.1213  -32.5830   -3.6851 C   0  0  0  0  0  0
  -15.4036  -28.3037   -0.3108 C   0  0  0  0  0  0
  -16.5612  -27.6063   -0.3584 N   0  0  0  0  0  0
  -16.5405  -26.4246   -1.0082 C   0  0  0  0  0  0
  -15.8116  -20.8716   -2.5390 C   0  0  0  0  0  0
  -12.1449  -19.8357   -3.1923 C   0  0  0  0  0  0
  -11.0803  -20.7210   -3.3862 C   0  0  0  0  0  0
   -8.4887  -20.9328   -4.6166 H   0  0  0  0  0  0
   -7.7758  -22.1343   -5.6096 H   0  0  0  0  0  0
  -17.7964  -23.2406   -1.4841 H   0  0  0  0  0  0
  -13.2762  -23.7919   -2.2997 H   0  0  0  0  0  0
  -10.5117  -29.4566   -1.5652 H   0  0  0  0  0  0
   -8.4283  -35.1522   -0.7827 H   0  0  0  0  0  0
  1  2  1  0  0  0
  1 41  1  0  0  0
  1 42  1  0  0  0
  2  3  2  0  0  0
  2  4  2  0  0  0
  2  5  1  0  0  0
  5  6  2  0  0  0
  5 40  1  0  0  0
  6  7  1  0  0  0
  7  8  2  0  0  0
  8  9  1  0  0  0
  8 39  1  0  0  0
  9 10  1  0  0  0
 10 11  2  0  0  0
 10 38  1  0  0  0
 11 12  1  0  0  0
 12 13  2  0  0  0
 13 14  1  0  0  0
 14 15  1  0  0  0
 14 38  2  0  0  0
 15 16  1  0  0  0
 15 43  1  0  0  0
 16 17  2  0  0  0
 16 18  1  0  0  0
 18 19  1  0  0  0
 18 20  1  0  0  0
 19 44  1  0  0  0
 20 21  2  0  0  0
 20 37  1  0  0  0
 21 22  1  0  0  0
 22 23  1  0  0  0
 22 35  2  0  0  0
 23 24  1  0  0  0
 24 25  1  0  0  0
 25 26  1  0  0  0
 25 45  1  0  0  0
 26 27  2  0  0  0
 26 28  1  0  0  0
 28 29  1  0  0  0
 28 34  1  0  0  0
 29 30  1  0  0  0
 30 31  1  0  0  0
 31 32  1  0  0  0
 31 33  1  0  0  0
 32 46  1  0  0  0
 33 34  1  0  0  0
 35 36  1  0  0  0
 36 37  2  0  0  0
 39 40  2  0  0  0
M  END
>  <AUTHOR>
    GENERATED BY OPEN BABEL 2.3.2

>  <CHROM.1>
170.73379208,108.60128668,62.90364985,-149.26018376,178.67398186,76.51804318
111.01251657,56.67830689,-111.75107187,-59.43110611,173.04764611,139.77428632
60.77533257,64.41652255,-12.88606889,-25.45916301,-2.74893279,-1.97718702
-0.40273005,2.88648773

>  <COMPND>
    UNNAMED

>  <MASTER>
        0    0    0    0    0    0    0    0   74    0   74    0

>  <Name>
ligands/mol9.pdb

>  <RI>
1.7882e+07

>  <Rbt.Current_Directory>
/home/rodrigo/Desktop/Rodrigo/Proyectos/test_OCONDOR/OCONDOR

>  <Rbt.Executable>
rbdock ($Id: //depot/dev/client3/rdock/2013.1/src/exe/rbdock.cxx#4 $)

>  <Rbt.Library>
libRbt.so (2013.1, Build901 2013/11/27)

>  <Rbt.Parameter_File>
dock.prm

>  <Rbt.Receptor>
rdock.prm

>  <SCORE>
-9.38549

>  <SCORE.INTER>
-7.12546

>  <SCORE.INTER.CONST>
1

>  <SCORE.INTER.POLAR>
-1.43831

>  <SCORE.INTER.REPUL>
0.243872

>  <SCORE.INTER.ROT>
13

>  <SCORE.INTER.VDW>
-21.8546

>  <SCORE.INTER.norm>
-0.178137

>  <SCORE.INTRA>
-2.26003

>  <SCORE.INTRA.DIHEDRAL>
-1.86163

>  <SCORE.INTRA.DIHEDRAL.0>
10.0128

>  <SCORE.INTRA.POLAR>
0.000487999

>  <SCORE.INTRA.POLAR.0>
-0.000487999

>  <SCORE.INTRA.REPUL>
0

>  <SCORE.INTRA.REPUL.0>
0

>  <SCORE.INTRA.VDW>
-1.33087

>  <SCORE.INTRA.VDW.0>
-4.23318

>  <SCORE.INTRA.norm>
-0.0565007

>  <SCORE.RESTR>
0

>  <SCORE.RESTR.CAVITY>
0

>  <SCORE.RESTR.norm>
0

>  <SCORE.SYSTEM>
0

>  <SCORE.SYSTEM.CONST>
0

>  <SCORE.SYSTEM.DIHEDRAL>
0

>  <SCORE.SYSTEM.norm>
0

>  <SCORE.heavy>
40

>  <SCORE.norm>
-0.234637

$$$$
ligands/mol9.pdb
  rDOCK(R)          3D
libRbt.so/2013.1/901 2013/11/27
 46 49  0  0  0  0  0  0  0  0999 V2000
   -6.6803  -35.8954   -0.0563 N   0  0  0  0  0  0
   -5.7183  -35.2315   -1.2690 S   0  0  0  0  0  0
   -4.5227  -34.7327   -0.6372 O   0  0  0  0  0  0
   -5.6735  -36.1863   -2.3586 O   0  0  0  0  0  0
   -6.7144  -33.8538   -1.7756 C   0  0  0  0  0  0
   -7.4185  -33.0980   -0.8382 C   0  0  0  0  0  0
   -8.1815  -32.0001   -1.2648 C   0  0  0  0  0  0
   -8.2759  -31.6672   -2.6317 C   0  0  0  0  0  0
   -9.1083  -30.4761   -3.1047 C   0  0  0  0  0  0
   -8.6390  -29.8025   -4.3905 C   0  0  0  0  0  0
   -8.0080  -28.5483   -4.3693 C   0  0  0  0  0  0
   -7.7429  -27.8469   -5.5473 C   0  0  0  0  0  0
   -8.0037  -28.4365   -6.7805 C   0  0  0  0  0  0
   -8.4699  -29.7509   -6.8267 C   0  0  0  0  0  0
   -8.5682  -30.4485   -8.0458 N   0  0  0  0  0  0
   -9.3581  -31.5851   -8.1841 C   0  0  0  0  0  0
   -8.9306  -32.6931   -8.5070 O   0  0  0  0  0  0
  -10.8619  -31.3453   -7.9664 C   0  0  0  0  0  0
  -11.7437  -32.1890   -9.3304 S   0  0  0  0  0  0
  -11.3104  -31.7025   -6.5610 C   0  0  0  0  0  0
  -11.9423  -30.8329   -5.6606 C   0  0  0  0  0  0
  -12.2986  -31.2666   -4.3750 C   0  0  0  0  0  0
  -12.8788  -30.3062   -3.3737 C   0  0  0  0  0  0
  -14.2816  -29.7926   -3.6935 C   0  0  0  0  0  0
  -14.7466  -28.9144   -2.6347 N   0  0  0  0  0  0
  -14.7522  -27.5442   -2.7610 C   0  0  0  0  0  0
  -14.3733  -26.9727   -3.7775 O   0  0  0  0  0  0
  -15.3098  -26.8227   -1.5277 C   0  0  0  0  0  0
  -14.3636  -26.9112   -0.3215 C   0  0  0  0  0  0
  -13.1051  -26.0633   -0.5138 C   0  0  0  0  0  0
  -13.4305  -24.6081   -0.8437 C   0  0  0  0  0  0
  -13.9742  -23.9924    0.3210 O   0  0  0  0  0  0
  -14.4278  -24.4710   -1.9925 C   0  0  0  0  0  0
  -15.6627  -25.3593   -1.8167 C   0  0  0  0  0  0
  -12.0149  -32.5863   -4.0462 C   0  0  0  0  0  0
  -11.3954  -33.4529   -4.8792 N   0  0  0  0  0  0
  -11.0312  -32.9866   -6.0912 C   0  0  0  0  0  0
   -8.7942  -30.4268   -5.6409 C   0  0  0  0  0  0
   -7.6146  -32.4959   -3.5532 C   0  0  0  0  0  0
   -6.8118  -33.5598   -3.1310 C   0  0  0  0  0  0
   -6.2251  -35.7787    0.8495 H   0  0  0  0  0  0
   -7.6629  -35.6110   -0.0684 H   0  0  0  0  0  0
   -7.7613  -30.4039   -8.6575 H   0  0  0  0  0  0
  -12.9684  -31.7913   -8.9548 H   0  0  0  0  0  0
  -15.1127  -29.3223   -1.7843 H   0  0  0  0  0  0
  -14.7521  -24.5168    0.5828 H   0  0  0  0  0  0
  1  2  1  0  0  0
  1 41  1  0  0  0
  1 42  1  0  0  0
  2  3  2  0  0  0
  2  4  2  0  0  0
  2  5  1  0  0  0
  5  6  2  0  0  0
  5 40  1  0  0  0
  6  7  1  0  0  0
  7  8  2  0  0  0
  8  9  1  0  0  0
  8 39  1  0  0  0
  9 10  1  0  0  0
 10 11  2  0  0  0
 10 38  1  0  0  0
 11 12  1  0  0  0
 12 13  2  0  0  0
 13 14  1  0  0  0
 14 15  1  0  0  0
 14 38  2  0  0  0
 15 16  1  0  0  0
 15 43  1  0  0  0
 16 17  2  0  0  0
 16 18  1  0  0  0
 18 19  1  0  0  0
 18 20  1  0  0  0
 19 44  1  0  0  0
 20 21  2  0  0  0
 20 37  1  0  0  0
 21 22  1  0  0  0
 22 23  1  0  0  0
 22 35  2  0  0  0
 23 24  1  0  0  0
 24 25  1  0  0  0
 25 26  1  0  0  0
 25 45  1  0  0  0
 26 27  2  0  0  0
 26 28  1  0  0  0
 28 29  1  0  0  0
 28 34  1  0  0  0
 29 30  1  0  0  0
 30 31  1  0  0  0
 31 32  1  0  0  0
 31 33  1  0  0  0
 32 46  1  0  0  0
 33 34  1  0  0  0
 35 36  1  0  0  0
 36 37  2  0  0  0
 39 40  2  0  0  0
M  END
>  <AUTHOR>
    GENERATED BY OPEN BABEL 2.3.2

>  <CHROM.1>
1.49298858,38.85718619,151.22778605,-106.58113163,-161.55597699,-119.96592670
133.84400224,-177.44230456,122.63711146,68.70238456,178.05248455,102.59442686
70.55459662,-57.07771249,-10.33868955,-30.62890849,-3.80936313,-0.25989336
-0.77785800,1.34195818

>  <COMPND>
    UNNAMED

>  <MASTER>
        0    0    0    0    0    0    0    0   74    0   74    0

>  <Name>
ligands/mol9.pdb

>  <RI>
1.7882e+07

>  <Rbt.Current_Directory>
/home/rodrigo/Desktop/Rodrigo/Proyectos/test_OCONDOR/OCONDOR

>  <Rbt.Executable>
rbdock ($Id: //depot/dev/client3/rdock/2013.1/src/exe/rbdock.cxx#4 $)

>  <Rbt.Library>
libRbt.so (2013.1, Build901 2013/11/27)

>  <Rbt.Parameter_File>
dock.prm

>  <Rbt.Receptor>
rdock.prm

>  <SCORE>
-7.77271

>  <SCORE.INTER>
-6.53008

>  <SCORE.INTER.CONST>
1

>  <SCORE.INTER.POLAR>
-2.07262

>  <SCORE.INTER.REPUL>
0.0414482

>  <SCORE.INTER.ROT>
13

>  <SCORE.INTER.VDW>
-18.0904

>  <SCORE.INTER.norm>
-0.163252

>  <SCORE.INTRA>
-1.24263

>  <SCORE.INTRA.DIHEDRAL>
0.422696

>  <SCORE.INTRA.DIHEDRAL.0>
10.0128

>  <SCORE.INTRA.POLAR>
0.000487999

>  <SCORE.INTRA.POLAR.0>
-0.000487999

>  <SCORE.INTRA.REPUL>
0

>  <SCORE.INTRA.REPUL.0>
0

>  <SCORE.INTRA.VDW>
-1.45564

>  <SCORE.INTRA.VDW.0>
-4.23318

>  <SCORE.INTRA.norm>
-0.0310657

>  <SCORE.RESTR>
0

>  <SCORE.RESTR.CAVITY>
0

>  <SCORE.RESTR.norm>
0

>  <SCORE.SYSTEM>
0

>  <SCORE.SYSTEM.CONST>
0

>  <SCORE.SYSTEM.DIHEDRAL>
0

>  <SCORE.SYSTEM.norm>
0

>  <SCORE.heavy>
40

>  <SCORE.norm>
-0.194318

$$$$
ligands/mol9.pdb
  rDOCK(R)          3D
libRbt.so/2013.1/901 2013/11/27
 46 49  0  0  0  0  0  0  0  0999 V2000
   -8.5500  -25.6114    0.5060 N   0  0  0  0  0  0
   -9.7472  -24.8389    1.4042 S   0  0  0  0  0  0
   -9.3256  -24.8622    2.7823 O   0  0  0  0  0  0
  -10.0749  -23.6042    0.7191 O   0  0  0  0  0  0
  -11.1026  -25.9654    1.2019 C   0  0  0  0  0  0
  -12.3963  -25.4941    0.9789 C   0  0  0  0  0  0
  -13.4461  -26.4083    0.8008 C   0  0  0  0  0  0
  -13.2210  -27.7982    0.8769 C   0  0  0  0  0  0
  -14.3595  -28.8000    0.6887 C   0  0  0  0  0  0
  -14.1644  -29.8319   -0.4178 C   0  0  0  0  0  0
  -15.0872  -29.9592   -1.4684 C   0  0  0  0  0  0
  -15.0134  -31.0162   -2.3780 C   0  0  0  0  0  0
  -13.9465  -31.9077   -2.3218 C   0  0  0  0  0  0
  -12.9259  -31.6975   -1.3937 C   0  0  0  0  0  0
  -11.7420  -32.4589   -1.4249 N   0  0  0  0  0  0
  -10.9502  -32.5457   -2.5653 C   0  0  0  0  0  0
  -10.8387  -33.5565   -3.2583 O   0  0  0  0  0  0
  -10.1420  -31.2745   -2.8771 C   0  0  0  0  0  0
   -8.4474  -31.5454   -2.2410 S   0  0  0  0  0  0
  -10.2491  -30.8599   -4.3333 C   0  0  0  0  0  0
  -10.9136  -31.5766   -5.3389 C   0  0  0  0  0  0
  -10.9341  -31.1066   -6.6603 C   0  0  0  0  0  0
  -11.5543  -31.9267   -7.7578 C   0  0  0  0  0  0
  -10.5784  -32.7635   -8.5832 C   0  0  0  0  0  0
   -9.8252  -33.6531   -7.7173 N   0  0  0  0  0  0
   -8.6976  -33.2462   -7.0417 C   0  0  0  0  0  0
   -8.2574  -32.1044   -7.1183 O   0  0  0  0  0  0
   -8.0829  -34.3465   -6.1675 C   0  0  0  0  0  0
   -7.2379  -35.3363   -6.9825 C   0  0  0  0  0  0
   -5.9357  -34.7074   -7.4807 C   0  0  0  0  0  0
   -5.1148  -34.0971   -6.3467 C   0  0  0  0  0  0
   -4.5940  -35.1556   -5.5469 O   0  0  0  0  0  0
   -5.9340  -33.1595   -5.4620 C   0  0  0  0  0  0
   -7.2588  -33.7783   -5.0067 C   0  0  0  0  0  0
  -10.2879  -29.9043   -6.9193 C   0  0  0  0  0  0
   -9.6247  -29.1894   -5.9824 N   0  0  0  0  0  0
   -9.5923  -29.6950   -4.7325 C   0  0  0  0  0  0
  -13.0375  -30.6727   -0.4421 C   0  0  0  0  0  0
  -11.9199  -28.2338    1.1778 C   0  0  0  0  0  0
  -10.8603  -27.3305    1.3055 C   0  0  0  0  0  0
   -8.0428  -24.9269   -0.0557 H   0  0  0  0  0  0
   -7.9464  -26.2479    1.0322 H   0  0  0  0  0  0
  -11.7070  -33.2639   -0.8102 H   0  0  0  0  0  0
   -8.0195  -30.2977   -2.4846 H   0  0  0  0  0  0
  -10.1579  -34.5981   -7.5760 H   0  0  0  0  0  0
   -4.0419  -34.7454   -4.8573 H   0  0  0  0  0  0
  1  2  1  0  0  0
  1 41  1  0  0  0
  1 42  1  0  0  0
  2  3  2  0  0  0
  2  4  2  0  0  0
  2  5  1  0  0  0
  5  6  2  0  0  0
  5 40  1  0  0  0
  6  7  1  0  0  0
  7  8  2  0  0  0
  8  9  1  0  0  0
  8 39  1  0  0  0
  9 10  1  0  0  0
 10 11  2  0  0  0
 10 38  1  0  0  0
 11 12  1  0  0  0
 12 13  2  0  0  0
 13 14  1  0  0  0
 14 15  1  0  0  0
 14 38  2  0  0  0
 15 16  1  0  0  0
 15 43  1  0  0  0
 16 17  2  0  0  0
 16 18  1  0  0  0
 18 19  1  0  0  0
 18 20  1  0  0  0
 19 44  1  0  0  0
 20 21  2  0  0  0
 20 37  1  0  0  0
 21 22  1  0  0  0
 22 23  1  0  0  0
 22 35  2  0  0  0
 23 24  1  0  0  0
 24 25  1  0  0  0
 25 26  1  0  0  0
 25 45  1  0  0  0
 26 27  2  0  0  0
 26 28  1  0  0  0
 28 29  1  0  0  0
 28 34  1  0  0  0
 29 30  1  0  0  0
 30 31  1  0  0  0
 31 32  1  0  0  0
 31 33  1  0  0  0
 32 46  1  0  0  0
 33 34  1  0  0  0
 35 36  1  0  0  0
 36 37  2  0  0  0
 39 40  2  0  0  0
M  END
>  <AUTHOR>
    GENERATED BY OPEN BABEL 2.3.2

>  <CHROM.1>
-108.94579189,-138.47543519,123.19031203,-122.59221292,55.20172224,-109.48726422
98.58132086,-173.40524640,-4.59745755,-97.16054073,56.89147680,-83.56628748
79.76074512,177.41141493,-10.21107038,-30.40886335,-2.93588054,-1.90234698
-0.16555081,-2.38555797

>  <COMPND>
    UNNAMED

>  <MASTER>
        0    0    0    0    0    0    0    0   74    0   74    0

>  <Name>
ligands/mol9.pdb

>  <RI>
1.7882e+07

>  <Rbt.Current_Directory>
/home/rodrigo/Desktop/Rodrigo/Proyectos/test_OCONDOR/OCONDOR

>  <Rbt.Executable>
rbdock ($Id: //depot/dev/client3/rdock/2013.1/src/exe/rbdock.cxx#4 $)

>  <Rbt.Library>
libRbt.so (2013.1, Build901 2013/11/27)

>  <Rbt.Parameter_File>
dock.prm

>  <Rbt.Receptor>
rdock.prm

>  <SCORE>
-7.86558

>  <SCORE.INTER>
-5.05315

>  <SCORE.INTER.CONST>
1

>  <SCORE.INTER.POLAR>
-0.864679

>  <SCORE.INTER.REPUL>
0.112453

>  <SCORE.INTER.ROT>
13

>  <SCORE.INTER.VDW>
-21.0755

>  <SCORE.INTER.norm>
-0.126329

>  <SCORE.INTRA>
-2.81242

>  <SCORE.INTRA.DIHEDRAL>
0.456618

>  <SCORE.INTRA.DIHEDRAL.0>
10.0128

>  <SCORE.INTRA.POLAR>
0.000487999

>  <SCORE.INTRA.POLAR.0>
-0.000487999

>  <SCORE.INTRA.REPUL>
0

>  <SCORE.INTRA.REPUL.0>
0

>  <SCORE.INTRA.VDW>
-3.04239

>  <SCORE.INTRA.VDW.0>
-4.23318

>  <SCORE.INTRA.norm>
-0.0703106

>  <SCORE.RESTR>
0

>  <SCORE.RESTR.CAVITY>
0

>  <SCORE.RESTR.norm>
0

>  <SCORE.SYSTEM>
0

>  <SCORE.SYSTEM.CONST>
0

>  <SCORE.SYSTEM.DIHEDRAL>
0

>  <SCORE.SYSTEM.norm>
0

>  <SCORE.heavy>
40

>  <SCORE.norm>
-0.196639

$$$$
