ligands/mol1.pdb
  rDOCK(R)          3D
libRbt.so/2013.1/901 2013/11/27
 45 48  0  0  0  0  0  0  0  0999 V2000
   -9.2371  -33.0021   -1.4506 C   0  0  0  0  0  0
   -9.1949  -33.7638   -2.6299 C   0  0  0  0  0  0
  -10.1758  -33.5850   -3.5912 C   0  0  0  0  0  0
  -11.2191  -32.7558   -3.4417 N   0  0  0  0  0  0
  -11.2474  -32.0209   -2.3009 C   0  0  0  0  0  0
  -10.2603  -32.0469   -1.3119 C   0  0  0  0  0  0
  -10.2282  -31.1504   -0.2159 N   0  0  0  0  0  0
  -11.1327  -30.1391    0.0422 C   0  0  0  0  0  0
  -12.0284  -29.8146   -0.7245 O   0  0  0  0  0  0
  -10.8805  -29.5464    1.2733 N   0  0  0  0  0  0
  -11.6080  -28.4757    1.8420 C   0  0  0  0  0  0
  -11.1395  -27.7409    2.9336 C   0  0  0  0  0  0
  -11.8442  -26.6460    3.4143 C   0  0  0  0  0  0
  -13.0483  -26.2883    2.8303 C   0  0  0  0  0  0
  -13.5770  -27.0237    1.7599 C   0  0  0  0  0  0
  -14.9017  -26.6592    1.1207 C   0  0  0  0  0  0
  -14.9555  -25.2947    0.4570 C   0  0  0  0  0  0
  -13.8243  -24.4626    0.4589 C   0  0  0  0  0  0
  -13.8747  -23.1974   -0.1302 C   0  0  0  0  0  0
  -15.0684  -22.7586   -0.7118 C   0  0  0  0  0  0
  -15.1267  -21.1868   -1.5306 S   0  0  0  0  0  0
  -13.8723  -21.0102   -2.2550 O   0  0  0  0  0  0
  -16.4024  -21.0383   -2.1568 O   0  0  0  0  0  0
  -15.1128  -20.1203   -0.2306 N   0  0  0  0  0  0
  -16.2102  -23.5614   -0.6915 C   0  0  0  0  0  0
  -16.1553  -24.8228   -0.0995 C   0  0  0  0  0  0
  -12.8410  -28.1232    1.2710 C   0  0  0  0  0  0
   -8.1951  -33.2697   -0.3844 C   0  0  0  0  0  0
   -6.8632  -32.5178   -0.5496 C   0  0  0  0  0  0
   -6.2918  -32.6403   -1.8762 N   0  0  0  0  0  0
   -5.8360  -33.8392   -2.3913 C   0  0  0  0  0  0
   -5.8442  -34.8824   -1.7463 O   0  0  0  0  0  0
   -5.1890  -33.7249   -3.7772 C   0  0  0  0  0  0
   -4.6255  -35.0633   -4.2849 C   0  0  0  0  0  0
   -5.6890  -36.0091   -4.8511 C   0  0  0  0  0  0
   -6.5849  -35.3344   -5.8862 C   0  0  0  0  0  0
   -7.1579  -34.0137   -5.3801 C   0  0  0  0  0  0
   -6.0844  -33.0736   -4.8384 C   0  0  0  0  0  0
   -5.8329  -35.0721   -7.0695 O   0  0  0  0  0  0
   -9.3766  -31.1203    0.3166 H   0  0  0  0  0  0
  -10.2530  -30.0382    1.8897 H   0  0  0  0  0  0
  -14.1740  -19.8327    0.0492 H   0  0  0  0  0  0
  -15.6351  -20.5378    0.5388 H   0  0  0  0  0  0
   -6.2970  -31.8198   -2.4638 H   0  0  0  0  0  0
   -6.4295  -34.6223   -7.6951 H   0  0  0  0  0  0
  1  2  2  0  0  0
  1  6  1  0  0  0
  1 28  1  0  0  0
  2  3  1  0  0  0
  3  4  2  0  0  0
  4  5  1  0  0  0
  5  6  2  0  0  0
  6  7  1  0  0  0
  7  8  1  0  0  0
  7 40  1  0  0  0
  8  9  2  0  0  0
  8 10  1  0  0  0
 10 11  1  0  0  0
 10 41  1  0  0  0
 11 12  2  0  0  0
 11 27  1  0  0  0
 12 13  1  0  0  0
 13 14  2  0  0  0
 14 15  1  0  0  0
 15 16  1  0  0  0
 15 27  2  0  0  0
 16 17  1  0  0  0
 17 18  2  0  0  0
 17 26  1  0  0  0
 18 19  1  0  0  0
 19 20  2  0  0  0
 20 21  1  0  0  0
 20 25  1  0  0  0
 21 22  2  0  0  0
 21 23  2  0  0  0
 21 24  1  0  0  0
 24 42  1  0  0  0
 24 43  1  0  0  0
 25 26  2  0  0  0
 28 29  1  0  0  0
 29 30  1  0  0  0
 30 31  1  0  0  0
 30 44  1  0  0  0
 31 32  2  0  0  0
 31 33  1  0  0  0
 33 34  1  0  0  0
 33 38  1  0  0  0
 34 35  1  0  0  0
 35 36  1  0  0  0
 36 37  1  0  0  0
 36 39  1  0  0  0
 37 38  1  0  0  0
 39 45  1  0  0  0
M  END
>  <AUTHOR>
    GENERATED BY OPEN BABEL 2.3.2

>  <CHROM.1>
85.88130579,178.23648948,-165.84709715,62.78177690,0.14760305,38.79334480
90.71825239,-50.03924201,-65.81800480,176.86388290,-178.55560446,-10.85054182
-29.10000372,-1.34035923,0.04524260,-0.96711583,1.92315607

>  <COMPND>
    mol1_3d.pdb 

>  <MASTER>
        0    0    0    0    0    0    0    0   72    0   72    0

>  <Name>
ligands/mol1.pdb

>  <RI>
9.70227e+06

>  <Rbt.Current_Directory>
/home/rodrigo/Desktop/Rodrigo/Proyectos/test_OCONDOR/OCONDOR

>  <Rbt.Executable>
rbdock ($Id: //depot/dev/client3/rdock/2013.1/src/exe/rbdock.cxx#4 $)

>  <Rbt.Library>
libRbt.so (2013.1, Build901 2013/11/27)

>  <Rbt.Parameter_File>
dock.prm

>  <Rbt.Receptor>
rdock.prm

>  <SCORE>
-15.3649

>  <SCORE.INTER>
-16.758

>  <SCORE.INTER.CONST>
1

>  <SCORE.INTER.POLAR>
-2.21726

>  <SCORE.INTER.REPUL>
0

>  <SCORE.INTER.ROT>
10

>  <SCORE.INTER.VDW>
-24.6193

>  <SCORE.INTER.norm>
-0.429691

>  <SCORE.INTRA>
1.39309

>  <SCORE.INTRA.DIHEDRAL>
0.408112

>  <SCORE.INTRA.DIHEDRAL.0>
8.24127

>  <SCORE.INTRA.POLAR>
0

>  <SCORE.INTRA.POLAR.0>
0

>  <SCORE.INTRA.REPUL>
0

>  <SCORE.INTRA.REPUL.0>
0

>  <SCORE.INTRA.VDW>
1.18903

>  <SCORE.INTRA.VDW.0>
-4.15137

>  <SCORE.INTRA.norm>
0.0357202

>  <SCORE.RESTR>
0

>  <SCORE.RESTR.CAVITY>
0

>  <SCORE.RESTR.norm>
0

>  <SCORE.SYSTEM>
0

>  <SCORE.SYSTEM.CONST>
0

>  <SCORE.SYSTEM.DIHEDRAL>
0

>  <SCORE.SYSTEM.norm>
0

>  <SCORE.heavy>
39

>  <SCORE.norm>
-0.393971

$$$$
ligands/mol1.pdb
  rDOCK(R)          3D
libRbt.so/2013.1/901 2013/11/27
 45 48  0  0  0  0  0  0  0  0999 V2000
  -10.0607  -32.7976   -3.2350 C   0  0  0  0  0  0
   -9.6388  -34.0665   -3.6646 C   0  0  0  0  0  0
   -8.8977  -34.1793   -4.8293 C   0  0  0  0  0  0
   -8.5991  -33.1399   -5.6225 N   0  0  0  0  0  0
   -9.0071  -31.9179   -5.1954 C   0  0  0  0  0  0
   -9.6715  -31.6763   -3.9899 C   0  0  0  0  0  0
   -9.9359  -30.3779   -3.4898 N   0  0  0  0  0  0
  -10.5933  -29.3617   -4.1552 C   0  0  0  0  0  0
  -10.9348  -29.4249   -5.3277 O   0  0  0  0  0  0
  -10.8018  -28.2713   -3.3196 N   0  0  0  0  0  0
  -11.4357  -27.0602   -3.6805 C   0  0  0  0  0  0
  -11.7169  -26.7217   -5.0062 C   0  0  0  0  0  0
  -12.4118  -25.5609   -5.3161 C   0  0  0  0  0  0
  -12.8080  -24.7014   -4.3045 C   0  0  0  0  0  0
  -12.5092  -24.9804   -2.9632 C   0  0  0  0  0  0
  -12.9175  -24.0430   -1.8449 C   0  0  0  0  0  0
  -12.7494  -24.5889   -0.4381 C   0  0  0  0  0  0
  -13.8553  -25.1042    0.2571 C   0  0  0  0  0  0
  -13.7111  -25.5869    1.5596 C   0  0  0  0  0  0
  -12.4554  -25.5402    2.1733 C   0  0  0  0  0  0
  -12.2400  -26.2188    3.7973 S   0  0  0  0  0  0
  -11.4621  -27.4470    3.6721 O   0  0  0  0  0  0
  -11.8758  -25.1673    4.6936 O   0  0  0  0  0  0
  -13.8130  -26.6568    4.1992 N   0  0  0  0  0  0
  -11.3543  -24.9999    1.5068 C   0  0  0  0  0  0
  -11.5043  -24.5168    0.2072 C   0  0  0  0  0  0
  -11.8178  -26.1726   -2.6624 C   0  0  0  0  0  0
  -10.9316  -32.7100   -1.9989 C   0  0  0  0  0  0
  -10.1844  -32.5120   -0.6689 C   0  0  0  0  0  0
   -8.8266  -33.0194   -0.6884 N   0  0  0  0  0  0
   -7.7536  -32.2800   -1.1494 C   0  0  0  0  0  0
   -7.8784  -31.1521   -1.6151 O   0  0  0  0  0  0
   -6.4224  -33.0415   -1.1633 C   0  0  0  0  0  0
   -5.9293  -33.4070    0.2474 C   0  0  0  0  0  0
   -6.6297  -34.6276    0.8522 C   0  0  0  0  0  0
   -6.6281  -35.8315   -0.0859 C   0  0  0  0  0  0
   -7.1311  -35.4757   -1.4820 C   0  0  0  0  0  0
   -6.4097  -34.2709   -2.0800 C   0  0  0  0  0  0
   -5.3015  -36.3420   -0.2045 O   0  0  0  0  0  0
   -9.4421  -30.1064   -2.6578 H   0  0  0  0  0  0
  -10.6608  -28.4260   -2.3338 H   0  0  0  0  0  0
  -13.9302  -26.8910    5.1860 H   0  0  0  0  0  0
  -14.1073  -27.4144    3.5840 H   0  0  0  0  0  0
   -8.6622  -33.9277   -0.2804 H   0  0  0  0  0  0
   -5.3596  -37.1810   -0.6965 H   0  0  0  0  0  0
  1  2  2  0  0  0
  1  6  1  0  0  0
  1 28  1  0  0  0
  2  3  1  0  0  0
  3  4  2  0  0  0
  4  5  1  0  0  0
  5  6  2  0  0  0
  6  7  1  0  0  0
  7  8  1  0  0  0
  7 40  1  0  0  0
  8  9  2  0  0  0
  8 10  1  0  0  0
 10 11  1  0  0  0
 10 41  1  0  0  0
 11 12  2  0  0  0
 11 27  1  0  0  0
 12 13  1  0  0  0
 13 14  2  0  0  0
 14 15  1  0  0  0
 15 16  1  0  0  0
 15 27  2  0  0  0
 16 17  1  0  0  0
 17 18  2  0  0  0
 17 26  1  0  0  0
 18 19  1  0  0  0
 19 20  2  0  0  0
 20 21  1  0  0  0
 20 25  1  0  0  0
 21 22  2  0  0  0
 21 23  2  0  0  0
 21 24  1  0  0  0
 24 42  1  0  0  0
 24 43  1  0  0  0
 25 26  2  0  0  0
 28 29  1  0  0  0
 29 30  1  0  0  0
 30 31  1  0  0  0
 30 44  1  0  0  0
 31 32  2  0  0  0
 31 33  1  0  0  0
 33 34  1  0  0  0
 33 38  1  0  0  0
 34 35  1  0  0  0
 35 36  1  0  0  0
 36 37  1  0  0  0
 36 39  1  0  0  0
 37 38  1  0  0  0
 39 45  1  0  0  0
M  END
>  <AUTHOR>
    GENERATED BY OPEN BABEL 2.3.2

>  <CHROM.1>
92.09777340,-127.04556580,-12.05771326,169.49767106,-99.84773757,108.32720267
-167.76821158,-26.04620158,85.58495033,-65.85772495,171.62535910,-10.24758476
-29.57417844,-1.19961992,0.34945375,1.03264055,-1.66651467

>  <COMPND>
    mol1_3d.pdb 

>  <MASTER>
        0    0    0    0    0    0    0    0   72    0   72    0

>  <Name>
ligands/mol1.pdb

>  <RI>
9.70227e+06

>  <Rbt.Current_Directory>
/home/rodrigo/Desktop/Rodrigo/Proyectos/test_OCONDOR/OCONDOR

>  <Rbt.Executable>
rbdock ($Id: //depot/dev/client3/rdock/2013.1/src/exe/rbdock.cxx#4 $)

>  <Rbt.Library>
libRbt.so (2013.1, Build901 2013/11/27)

>  <Rbt.Parameter_File>
dock.prm

>  <Rbt.Receptor>
rdock.prm

>  <SCORE>
-13.8187

>  <SCORE.INTER>
-16.3224

>  <SCORE.INTER.CONST>
1

>  <SCORE.INTER.POLAR>
-2.41533

>  <SCORE.INTER.REPUL>
0.0929368

>  <SCORE.INTER.ROT>
10

>  <SCORE.INTER.VDW>
-23.9749

>  <SCORE.INTER.norm>
-0.418523

>  <SCORE.INTRA>
2.50367

>  <SCORE.INTRA.DIHEDRAL>
10.809

>  <SCORE.INTRA.DIHEDRAL.0>
8.24127

>  <SCORE.INTRA.POLAR>
-0.575653

>  <SCORE.INTRA.POLAR.0>
0

>  <SCORE.INTRA.REPUL>
0

>  <SCORE.INTRA.REPUL.0>
0

>  <SCORE.INTRA.VDW>
-0.94361

>  <SCORE.INTRA.VDW.0>
-4.15137

>  <SCORE.INTRA.norm>
0.0641966

>  <SCORE.RESTR>
0

>  <SCORE.RESTR.CAVITY>
0

>  <SCORE.RESTR.norm>
0

>  <SCORE.SYSTEM>
0

>  <SCORE.SYSTEM.CONST>
0

>  <SCORE.SYSTEM.DIHEDRAL>
0

>  <SCORE.SYSTEM.norm>
0

>  <SCORE.heavy>
39

>  <SCORE.norm>
-0.354326

$$$$
ligands/mol1.pdb
  rDOCK(R)          3D
libRbt.so/2013.1/901 2013/11/27
 45 48  0  0  0  0  0  0  0  0999 V2000
  -12.6819  -26.3872    1.1027 C   0  0  0  0  0  0
  -12.5656  -25.4122    2.1069 C   0  0  0  0  0  0
  -11.5404  -25.5079    3.0333 C   0  0  0  0  0  0
  -10.6665  -26.5245    3.0707 N   0  0  0  0  0  0
  -10.7847  -27.4584    2.0928 C   0  0  0  0  0  0
  -11.7155  -27.4081    1.0516 C   0  0  0  0  0  0
  -11.7086  -28.3022   -0.0468 N   0  0  0  0  0  0
  -12.7678  -29.0747   -0.4811 C   0  0  0  0  0  0
  -13.8320  -29.1677    0.1141 O   0  0  0  0  0  0
  -12.4558  -29.7276   -1.6673 N   0  0  0  0  0  0
  -13.3066  -30.6041   -2.3793 C   0  0  0  0  0  0
  -14.5812  -30.9519   -1.9260 C   0  0  0  0  0  0
  -15.4189  -31.7518   -2.6909 C   0  0  0  0  0  0
  -14.9810  -32.2448   -3.9092 C   0  0  0  0  0  0
  -13.6934  -31.9559   -4.3830 C   0  0  0  0  0  0
  -13.1900  -32.5017   -5.7040 C   0  0  0  0  0  0
  -11.7276  -32.9091   -5.7300 C   0  0  0  0  0  0
  -10.9692  -32.7464   -6.9007 C   0  0  0  0  0  0
   -9.6298  -33.1402   -6.9374 C   0  0  0  0  0  0
   -9.0516  -33.7124   -5.7999 C   0  0  0  0  0  0
   -7.3325  -34.1470   -5.8061 S   0  0  0  0  0  0
   -7.0888  -35.0011   -6.9639 O   0  0  0  0  0  0
   -6.5583  -32.9762   -5.5392 O   0  0  0  0  0  0
   -7.2160  -35.1120   -4.4340 N   0  0  0  0  0  0
   -9.8026  -33.9110   -4.6400 C   0  0  0  0  0  0
  -11.1404  -33.5185   -4.6095 C   0  0  0  0  0  0
  -12.8600  -31.1275   -3.6028 C   0  0  0  0  0  0
  -13.8545  -26.2996    0.1480 C   0  0  0  0  0  0
  -15.1307  -25.6555    0.7162 C   0  0  0  0  0  0
  -15.1770  -24.2168    0.5444 N   0  0  0  0  0  0
  -15.1553  -23.6060   -0.6953 C   0  0  0  0  0  0
  -15.0538  -24.2369   -1.7422 O   0  0  0  0  0  0
  -15.1227  -22.0735   -0.6428 C   0  0  0  0  0  0
  -13.7165  -21.5158   -0.3630 C   0  0  0  0  0  0
  -12.7998  -21.5008   -1.5901 C   0  0  0  0  0  0
  -13.4494  -20.8375   -2.8014 C   0  0  0  0  0  0
  -14.8384  -21.3991   -3.0910 C   0  0  0  0  0  0
  -15.7469  -21.3882   -1.8646 C   0  0  0  0  0  0
  -13.5728  -19.4357   -2.5685 O   0  0  0  0  0  0
  -10.8100  -28.5401   -0.4283 H   0  0  0  0  0  0
  -11.6346  -29.4066   -2.1554 H   0  0  0  0  0  0
   -6.2551  -35.2634   -4.1240 H   0  0  0  0  0  0
   -7.7088  -35.9871   -4.6085 H   0  0  0  0  0  0
  -15.3001  -23.6521    1.3718 H   0  0  0  0  0  0
  -12.6716  -19.0648   -2.5646 H   0  0  0  0  0  0
  1  2  2  0  0  0
  1  6  1  0  0  0
  1 28  1  0  0  0
  2  3  1  0  0  0
  3  4  2  0  0  0
  4  5  1  0  0  0
  5  6  2  0  0  0
  6  7  1  0  0  0
  7  8  1  0  0  0
  7 40  1  0  0  0
  8  9  2  0  0  0
  8 10  1  0  0  0
 10 11  1  0  0  0
 10 41  1  0  0  0
 11 12  2  0  0  0
 11 27  1  0  0  0
 12 13  1  0  0  0
 13 14  2  0  0  0
 14 15  1  0  0  0
 15 16  1  0  0  0
 15 27  2  0  0  0
 16 17  1  0  0  0
 17 18  2  0  0  0
 17 26  1  0  0  0
 18 19  1  0  0  0
 19 20  2  0  0  0
 20 21  1  0  0  0
 20 25  1  0  0  0
 21 22  2  0  0  0
 21 23  2  0  0  0
 21 24  1  0  0  0
 24 42  1  0  0  0
 24 43  1  0  0  0
 25 26  2  0  0  0
 28 29  1  0  0  0
 29 30  1  0  0  0
 30 31  1  0  0  0
 30 44  1  0  0  0
 31 32  2  0  0  0
 31 33  1  0  0  0
 33 34  1  0  0  0
 33 38  1  0  0  0
 34 35  1  0  0  0
 35 36  1  0  0  0
 36 37  1  0  0  0
 36 39  1  0  0  0
 37 38  1  0  0  0
 39 45  1  0  0  0
M  END
>  <AUTHOR>
    GENERATED BY OPEN BABEL 2.3.2

>  <CHROM.1>
-29.25824161,-55.26535671,-2.19150039,-142.42594956,-146.12465974,-53.51876521
-164.72139837,88.89323163,60.74545989,79.84354443,68.50790477,-12.17064846
-28.47970981,-2.32630629,-2.67918455,1.14802460,-1.63639840

>  <COMPND>
    mol1_3d.pdb 

>  <MASTER>
        0    0    0    0    0    0    0    0   72    0   72    0

>  <Name>
ligands/mol1.pdb

>  <RI>
9.70227e+06

>  <Rbt.Current_Directory>
/home/rodrigo/Desktop/Rodrigo/Proyectos/test_OCONDOR/OCONDOR

>  <Rbt.Executable>
rbdock ($Id: //depot/dev/client3/rdock/2013.1/src/exe/rbdock.cxx#4 $)

>  <Rbt.Library>
libRbt.so (2013.1, Build901 2013/11/27)

>  <Rbt.Parameter_File>
dock.prm

>  <Rbt.Receptor>
rdock.prm

>  <SCORE>
-9.16483

>  <SCORE.INTER>
-15.5521

>  <SCORE.INTER.CONST>
1

>  <SCORE.INTER.POLAR>
-2.04265

>  <SCORE.INTER.REPUL>
0.165472

>  <SCORE.INTER.ROT>
10

>  <SCORE.INTER.VDW>
-24.8344

>  <SCORE.INTER.norm>
-0.398771

>  <SCORE.INTRA>
6.38723

>  <SCORE.INTRA.DIHEDRAL>
8.85105

>  <SCORE.INTRA.DIHEDRAL.0>
8.24127

>  <SCORE.INTRA.POLAR>
0

>  <SCORE.INTRA.POLAR.0>
0

>  <SCORE.INTRA.REPUL>
0

>  <SCORE.INTRA.REPUL.0>
0

>  <SCORE.INTRA.VDW>
1.9617

>  <SCORE.INTRA.VDW.0>
-4.15137

>  <SCORE.INTRA.norm>
0.163775

>  <SCORE.RESTR>
0

>  <SCORE.RESTR.CAVITY>
0

>  <SCORE.RESTR.norm>
0

>  <SCORE.SYSTEM>
0

>  <SCORE.SYSTEM.CONST>
0

>  <SCORE.SYSTEM.DIHEDRAL>
0

>  <SCORE.SYSTEM.norm>
0

>  <SCORE.heavy>
39

>  <SCORE.norm>
-0.234996

$$$$
ligands/mol1.pdb
  rDOCK(R)          3D
libRbt.so/2013.1/901 2013/11/27
 45 48  0  0  0  0  0  0  0  0999 V2000
  -13.8931  -27.7889    0.8571 C   0  0  0  0  0  0
  -15.1554  -27.2569    1.1673 C   0  0  0  0  0  0
  -16.2873  -27.8101    0.5920 C   0  0  0  0  0  0
  -16.2525  -28.8050   -0.3066 N   0  0  0  0  0  0
  -15.0282  -29.3151   -0.5952 C   0  0  0  0  0  0
  -13.8328  -28.9023   -0.0003 C   0  0  0  0  0  0
  -12.5948  -29.5625   -0.1938 N   0  0  0  0  0  0
  -12.3734  -30.6734   -0.9840 C   0  0  0  0  0  0
  -13.2633  -31.3049   -1.5359 O   0  0  0  0  0  0
  -11.0183  -30.9723   -1.0560 N   0  0  0  0  0  0
  -10.4442  -32.0487   -1.7705 C   0  0  0  0  0  0
  -11.0955  -32.6832   -2.8308 C   0  0  0  0  0  0
  -10.4679  -33.6837   -3.5601 C   0  0  0  0  0  0
   -9.1882  -34.0893   -3.2180 C   0  0  0  0  0  0
   -8.5137  -33.5094   -2.1341 C   0  0  0  0  0  0
   -7.1214  -33.9531   -1.7331 C   0  0  0  0  0  0
   -6.2345  -32.8724   -1.1410 C   0  0  0  0  0  0
   -5.9199  -31.7270   -1.8900 C   0  0  0  0  0  0
   -5.0862  -30.7403   -1.3591 C   0  0  0  0  0  0
   -4.5543  -30.9088   -0.0767 C   0  0  0  0  0  0
   -3.5567  -29.6306    0.6409 S   0  0  0  0  0  0
   -2.8530  -28.9487   -0.4405 O   0  0  0  0  0  0
   -4.3329  -28.9293    1.6141 O   0  0  0  0  0  0
   -2.4187  -30.5227    1.4995 N   0  0  0  0  0  0
   -4.8313  -32.0578    0.6661 C   0  0  0  0  0  0
   -5.6621  -33.0413    0.1302 C   0  0  0  0  0  0
   -9.1575  -32.4818   -1.4135 C   0  0  0  0  0  0
  -12.6671  -27.1187    1.4419 C   0  0  0  0  0  0
  -11.5642  -26.7498    0.4349 C   0  0  0  0  0  0
  -12.0154  -25.8565   -0.6140 N   0  0  0  0  0  0
  -11.8396  -26.1253   -1.9583 C   0  0  0  0  0  0
  -11.2508  -27.1226   -2.3624 O   0  0  0  0  0  0
  -12.3125  -25.0047   -2.8926 C   0  0  0  0  0  0
  -11.3167  -24.7151   -4.0289 C   0  0  0  0  0  0
  -11.3858  -25.7181   -5.1846 C   0  0  0  0  0  0
  -12.8066  -25.9195   -5.7044 C   0  0  0  0  0  0
  -13.7944  -26.2221   -4.5812 C   0  0  0  0  0  0
  -13.7286  -25.2029   -3.4470 C   0  0  0  0  0  0
  -13.2406  -24.7386   -6.3764 O   0  0  0  0  0  0
  -11.8529  -29.3233    0.4402 H   0  0  0  0  0  0
  -10.3825  -30.2610   -0.7314 H   0  0  0  0  0  0
   -1.8950  -31.1793    0.9191 H   0  0  0  0  0  0
   -2.8868  -30.9833    2.2791 H   0  0  0  0  0  0
  -12.5405  -25.0403   -0.3375 H   0  0  0  0  0  0
  -13.1921  -24.0080   -5.7334 H   0  0  0  0  0  0
  1  2  2  0  0  0
  1  6  1  0  0  0
  1 28  1  0  0  0
  2  3  1  0  0  0
  3  4  2  0  0  0
  4  5  1  0  0  0
  5  6  2  0  0  0
  6  7  1  0  0  0
  7  8  1  0  0  0
  7 40  1  0  0  0
  8  9  2  0  0  0
  8 10  1  0  0  0
 10 11  1  0  0  0
 10 41  1  0  0  0
 11 12  2  0  0  0
 11 27  1  0  0  0
 12 13  1  0  0  0
 13 14  2  0  0  0
 14 15  1  0  0  0
 15 16  1  0  0  0
 15 27  2  0  0  0
 16 17  1  0  0  0
 17 18  2  0  0  0
 17 26  1  0  0  0
 18 19  1  0  0  0
 19 20  2  0  0  0
 20 21  1  0  0  0
 20 25  1  0  0  0
 21 22  2  0  0  0
 21 23  2  0  0  0
 21 24  1  0  0  0
 24 42  1  0  0  0
 24 43  1  0  0  0
 25 26  2  0  0  0
 28 29  1  0  0  0
 29 30  1  0  0  0
 30 31  1  0  0  0
 30 44  1  0  0  0
 31 32  2  0  0  0
 31 33  1  0  0  0
 33 34  1  0  0  0
 33 38  1  0  0  0
 34 35  1  0  0  0
 35 36  1  0  0  0
 36 37  1  0  0  0
 36 39  1  0  0  0
 37 38  1  0  0  0
 39 45  1  0  0  0
M  END
>  <AUTHOR>
    GENERATED BY OPEN BABEL 2.3.2

>  <CHROM.1>
-128.36012328,179.08572302,21.56917142,147.88829754,-59.86301575,-31.14093793
57.17730537,58.54182918,-127.13015048,136.03035776,-58.64614012,-9.97658940
-29.27531530,-1.33462003,2.66003317,-0.12944584,-0.18635118

>  <COMPND>
    mol1_3d.pdb 

>  <MASTER>
        0    0    0    0    0    0    0    0   72    0   72    0

>  <Name>
ligands/mol1.pdb

>  <RI>
9.70227e+06

>  <Rbt.Current_Directory>
/home/rodrigo/Desktop/Rodrigo/Proyectos/test_OCONDOR/OCONDOR

>  <Rbt.Executable>
rbdock ($Id: //depot/dev/client3/rdock/2013.1/src/exe/rbdock.cxx#4 $)

>  <Rbt.Library>
libRbt.so (2013.1, Build901 2013/11/27)

>  <Rbt.Parameter_File>
dock.prm

>  <Rbt.Receptor>
rdock.prm

>  <SCORE>
-6.33583

>  <SCORE.INTER>
-8.47906

>  <SCORE.INTER.CONST>
1

>  <SCORE.INTER.POLAR>
-0.52915

>  <SCORE.INTER.REPUL>
0.0301107

>  <SCORE.INTER.ROT>
10

>  <SCORE.INTER.VDW>
-22.2305

>  <SCORE.INTER.norm>
-0.217412

>  <SCORE.INTRA>
2.14323

>  <SCORE.INTRA.DIHEDRAL>
2.31941

>  <SCORE.INTRA.DIHEDRAL.0>
8.24127

>  <SCORE.INTRA.POLAR>
0

>  <SCORE.INTRA.POLAR.0>
0

>  <SCORE.INTRA.REPUL>
0

>  <SCORE.INTRA.REPUL.0>
0

>  <SCORE.INTRA.VDW>
0.98353

>  <SCORE.INTRA.VDW.0>
-4.15137

>  <SCORE.INTRA.norm>
0.0549547

>  <SCORE.RESTR>
0

>  <SCORE.RESTR.CAVITY>
0

>  <SCORE.RESTR.norm>
0

>  <SCORE.SYSTEM>
0

>  <SCORE.SYSTEM.CONST>
0

>  <SCORE.SYSTEM.DIHEDRAL>
0

>  <SCORE.SYSTEM.norm>
0

>  <SCORE.heavy>
39

>  <SCORE.norm>
-0.162457

$$$$
ligands/mol1.pdb
  rDOCK(R)          3D
libRbt.so/2013.1/901 2013/11/27
 45 48  0  0  0  0  0  0  0  0999 V2000
  -10.1205  -33.5808   -3.0733 C   0  0  0  0  0  0
   -9.5556  -34.2211   -4.1885 C   0  0  0  0  0  0
  -10.1206  -34.0343   -5.4393 C   0  0  0  0  0  0
  -11.2309  -33.3129   -5.6519 N   0  0  0  0  0  0
  -11.7657  -32.6946   -4.5684 C   0  0  0  0  0  0
  -11.2226  -32.7318   -3.2812 C   0  0  0  0  0  0
  -11.7033  -31.9438   -2.2070 N   0  0  0  0  0  0
  -12.6790  -30.9688   -2.2785 C   0  0  0  0  0  0
  -13.1773  -30.5796   -3.3252 O   0  0  0  0  0  0
  -13.0037  -30.4943   -1.0136 N   0  0  0  0  0  0
  -13.9545  -29.4885   -0.7250 C   0  0  0  0  0  0
  -14.3877  -29.2101    0.5735 C   0  0  0  0  0  0
  -15.2621  -28.1624    0.8267 C   0  0  0  0  0  0
  -15.7443  -27.3958   -0.2215 C   0  0  0  0  0  0
  -15.3695  -27.6672   -1.5452 C   0  0  0  0  0  0
  -15.9014  -26.8519   -2.7064 C   0  0  0  0  0  0
  -14.8523  -26.1424   -3.5439 C   0  0  0  0  0  0
  -14.4962  -24.8151   -3.2550 C   0  0  0  0  0  0
  -13.5484  -24.1500   -4.0358 C   0  0  0  0  0  0
  -12.9648  -24.8137   -5.1196 C   0  0  0  0  0  0
  -11.7047  -24.0097   -6.0734 S   0  0  0  0  0  0
  -11.4120  -22.7272   -5.4418 O   0  0  0  0  0  0
  -10.6858  -24.9604   -6.3890 O   0  0  0  0  0  0
  -12.5131  -23.6902   -7.5129 N   0  0  0  0  0  0
  -13.3336  -26.1217   -5.4389 C   0  0  0  0  0  0
  -14.2826  -26.7803   -4.6576 C   0  0  0  0  0  0
  -14.4665  -28.7239   -1.7850 C   0  0  0  0  0  0
   -9.5285  -33.8604   -1.7075 C   0  0  0  0  0  0
   -8.1550  -33.2245   -1.4329 C   0  0  0  0  0  0
   -8.0494  -31.8552   -1.8972 N   0  0  0  0  0  0
   -7.2962  -31.4896   -2.9969 C   0  0  0  0  0  0
   -6.6273  -32.2935   -3.6378 O   0  0  0  0  0  0
   -7.2532  -29.9789   -3.2578 C   0  0  0  0  0  0
   -6.0396  -29.5535   -4.1021 C   0  0  0  0  0  0
   -6.2053  -29.8153   -5.6022 C   0  0  0  0  0  0
   -7.5134  -29.2568   -6.1557 C   0  0  0  0  0  0
   -8.7210  -29.6894   -5.3292 C   0  0  0  0  0  0
   -8.5500  -29.4031   -3.8398 C   0  0  0  0  0  0
   -7.4600  -27.8314   -6.1586 O   0  0  0  0  0  0
  -11.1621  -31.9579   -1.3605 H   0  0  0  0  0  0
  -12.6758  -31.0379   -0.2309 H   0  0  0  0  0  0
  -11.9225  -23.2549   -8.2228 H   0  0  0  0  0  0
  -13.3416  -23.1340   -7.3045 H   0  0  0  0  0  0
   -8.6111  -31.1595   -1.4291 H   0  0  0  0  0  0
   -7.3458  -27.5465   -5.2338 H   0  0  0  0  0  0
  1  2  2  0  0  0
  1  6  1  0  0  0
  1 28  1  0  0  0
  2  3  1  0  0  0
  3  4  2  0  0  0
  4  5  1  0  0  0
  5  6  2  0  0  0
  6  7  1  0  0  0
  7  8  1  0  0  0
  7 40  1  0  0  0
  8  9  2  0  0  0
  8 10  1  0  0  0
 10 11  1  0  0  0
 10 41  1  0  0  0
 11 12  2  0  0  0
 11 27  1  0  0  0
 12 13  1  0  0  0
 13 14  2  0  0  0
 14 15  1  0  0  0
 15 16  1  0  0  0
 15 27  2  0  0  0
 16 17  1  0  0  0
 17 18  2  0  0  0
 17 26  1  0  0  0
 18 19  1  0  0  0
 19 20  2  0  0  0
 20 21  1  0  0  0
 20 25  1  0  0  0
 21 22  2  0  0  0
 21 23  2  0  0  0
 21 24  1  0  0  0
 24 42  1  0  0  0
 24 43  1  0  0  0
 25 26  2  0  0  0
 28 29  1  0  0  0
 29 30  1  0  0  0
 30 31  1  0  0  0
 30 44  1  0  0  0
 31 32  2  0  0  0
 31 33  1  0  0  0
 33 34  1  0  0  0
 33 38  1  0  0  0
 34 35  1  0  0  0
 35 36  1  0  0  0
 36 37  1  0  0  0
 36 39  1  0  0  0
 37 38  1  0  0  0
 39 45  1  0  0  0
M  END
>  <AUTHOR>
    GENERATED BY OPEN BABEL 2.3.2

>  <CHROM.1>
72.77934996,173.01316617,169.38686404,120.38318871,-93.28637777,4.36995033
-177.36665076,42.70071780,-107.94653930,158.22441329,-61.02837254,-11.23014828
-28.97834728,-3.68591960,0.89478881,-0.50068439,2.66191481

>  <COMPND>
    mol1_3d.pdb 

>  <MASTER>
        0    0    0    0    0    0    0    0   72    0   72    0

>  <Name>
ligands/mol1.pdb

>  <RI>
9.70227e+06

>  <Rbt.Current_Directory>
/home/rodrigo/Desktop/Rodrigo/Proyectos/test_OCONDOR/OCONDOR

>  <Rbt.Executable>
rbdock ($Id: //depot/dev/client3/rdock/2013.1/src/exe/rbdock.cxx#4 $)

>  <Rbt.Library>
libRbt.so (2013.1, Build901 2013/11/27)

>  <Rbt.Parameter_File>
dock.prm

>  <Rbt.Receptor>
rdock.prm

>  <SCORE>
-7.45597

>  <SCORE.INTER>
-7.40122

>  <SCORE.INTER.CONST>
1

>  <SCORE.INTER.POLAR>
-0.460775

>  <SCORE.INTER.REPUL>
0

>  <SCORE.INTER.ROT>
10

>  <SCORE.INTER.VDW>
-21.2346

>  <SCORE.INTER.norm>
-0.189775

>  <SCORE.INTRA>
-0.0547488

>  <SCORE.INTRA.DIHEDRAL>
-1.2031

>  <SCORE.INTRA.DIHEDRAL.0>
8.24127

>  <SCORE.INTRA.POLAR>
0

>  <SCORE.INTRA.POLAR.0>
0

>  <SCORE.INTRA.REPUL>
0.0159406

>  <SCORE.INTRA.REPUL.0>
0

>  <SCORE.INTRA.VDW>
0.4671

>  <SCORE.INTRA.VDW.0>
-4.15137

>  <SCORE.INTRA.norm>
-0.00140381

>  <SCORE.RESTR>
0

>  <SCORE.RESTR.CAVITY>
0

>  <SCORE.RESTR.norm>
0

>  <SCORE.SYSTEM>
0

>  <SCORE.SYSTEM.CONST>
0

>  <SCORE.SYSTEM.DIHEDRAL>
0

>  <SCORE.SYSTEM.norm>
0

>  <SCORE.heavy>
39

>  <SCORE.norm>
-0.191179

$$$$
ligands/mol1.pdb
  rDOCK(R)          3D
libRbt.so/2013.1/901 2013/11/27
 45 48  0  0  0  0  0  0  0  0999 V2000
  -13.8417  -21.0363   -1.5178 C   0  0  0  0  0  0
  -13.7499  -19.6380   -1.4237 C   0  0  0  0  0  0
  -13.1049  -19.0697   -0.3377 C   0  0  0  0  0  0
  -12.6016  -19.7806    0.6819 N   0  0  0  0  0  0
  -12.6912  -21.1310    0.5785 C   0  0  0  0  0  0
  -13.2296  -21.8121   -0.5167 C   0  0  0  0  0  0
  -13.1588  -23.2177   -0.6748 N   0  0  0  0  0  0
  -12.4265  -24.0937    0.1023 C   0  0  0  0  0  0
  -11.6419  -23.7407    0.9713 O   0  0  0  0  0  0
  -12.6968  -25.4123   -0.2426 N   0  0  0  0  0  0
  -12.1142  -26.5586    0.3451 C   0  0  0  0  0  0
  -11.0729  -26.4840    1.2731 C   0  0  0  0  0  0
  -10.5800  -27.6263    1.8886 C   0  0  0  0  0  0
  -11.0998  -28.8676    1.5600 C   0  0  0  0  0  0
  -12.1163  -28.9929    0.6023 C   0  0  0  0  0  0
  -12.6840  -30.3437    0.2159 C   0  0  0  0  0  0
  -11.7172  -31.2866   -0.4780 C   0  0  0  0  0  0
  -11.8037  -31.4933   -1.8643 C   0  0  0  0  0  0
  -10.9318  -32.3766   -2.5046 C   0  0  0  0  0  0
   -9.9777  -33.0663   -1.7498 C   0  0  0  0  0  0
   -8.8142  -34.1326   -2.5582 S   0  0  0  0  0  0
   -8.2225  -35.0020   -1.5464 O   0  0  0  0  0  0
   -9.4060  -34.6401   -3.7555 O   0  0  0  0  0  0
   -7.6282  -33.0437   -3.0436 N   0  0  0  0  0  0
   -9.9022  -32.8962   -0.3663 C   0  0  0  0  0  0
  -10.7770  -32.0150    0.2684 C   0  0  0  0  0  0
  -12.6191  -27.8217   -0.0018 C   0  0  0  0  0  0
  -14.6159  -21.6296   -2.6766 C   0  0  0  0  0  0
  -13.8402  -21.7636   -3.9982 C   0  0  0  0  0  0
  -12.6046  -22.5108   -3.8693 N   0  0  0  0  0  0
  -12.2728  -23.5650   -4.6992 C   0  0  0  0  0  0
  -13.0203  -23.9729   -5.5821 O   0  0  0  0  0  0
  -10.9618  -24.2701   -4.3298 C   0  0  0  0  0  0
  -11.0252  -24.9688   -2.9607 C   0  0  0  0  0  0
  -11.7519  -26.3170   -2.9856 C   0  0  0  0  0  0
  -11.2320  -27.2453   -4.0799 C   0  0  0  0  0  0
  -11.1822  -26.5598   -5.4424 C   0  0  0  0  0  0
  -10.4372  -25.2282   -5.4063 C   0  0  0  0  0  0
   -9.9147  -27.6812   -3.7495 O   0  0  0  0  0  0
  -13.5167  -23.5928   -1.5355 H   0  0  0  0  0  0
  -13.5058  -25.5691   -0.8228 H   0  0  0  0  0  0
   -7.2196  -32.5166   -2.2707 H   0  0  0  0  0  0
   -8.0188  -32.4360   -3.7628 H   0  0  0  0  0  0
  -11.9361  -22.1918   -3.1838 H   0  0  0  0  0  0
   -9.9713  -28.1422   -2.8928 H   0  0  0  0  0  0
  1  2  2  0  0  0
  1  6  1  0  0  0
  1 28  1  0  0  0
  2  3  1  0  0  0
  3  4  2  0  0  0
  4  5  1  0  0  0
  5  6  2  0  0  0
  6  7  1  0  0  0
  7  8  1  0  0  0
  7 40  1  0  0  0
  8  9  2  0  0  0
  8 10  1  0  0  0
 10 11  1  0  0  0
 10 41  1  0  0  0
 11 12  2  0  0  0
 11 27  1  0  0  0
 12 13  1  0  0  0
 13 14  2  0  0  0
 14 15  1  0  0  0
 15 16  1  0  0  0
 15 27  2  0  0  0
 16 17  1  0  0  0
 17 18  2  0  0  0
 17 26  1  0  0  0
 18 19  1  0  0  0
 19 20  2  0  0  0
 20 21  1  0  0  0
 20 25  1  0  0  0
 21 22  2  0  0  0
 21 23  2  0  0  0
 21 24  1  0  0  0
 24 42  1  0  0  0
 24 43  1  0  0  0
 25 26  2  0  0  0
 28 29  1  0  0  0
 29 30  1  0  0  0
 30 31  1  0  0  0
 30 44  1  0  0  0
 31 32  2  0  0  0
 31 33  1  0  0  0
 33 34  1  0  0  0
 33 38  1  0  0  0
 34 35  1  0  0  0
 35 36  1  0  0  0
 36 37  1  0  0  0
 36 39  1  0  0  0
 37 38  1  0  0  0
 39 45  1  0  0  0
M  END
>  <AUTHOR>
    GENERATED BY OPEN BABEL 2.3.2

>  <CHROM.1>
83.15840617,169.63265282,-6.79774131,-65.30308968,-104.01809835,-163.54893981
58.09137305,54.95911965,129.22615053,64.82921038,59.22336640,-11.48804786
-26.99676534,-1.73678300,2.76867356,1.25915446,-1.16090643

>  <COMPND>
    mol1_3d.pdb 

>  <MASTER>
        0    0    0    0    0    0    0    0   72    0   72    0

>  <Name>
ligands/mol1.pdb

>  <RI>
9.70227e+06

>  <Rbt.Current_Directory>
/home/rodrigo/Desktop/Rodrigo/Proyectos/test_OCONDOR/OCONDOR

>  <Rbt.Executable>
rbdock ($Id: //depot/dev/client3/rdock/2013.1/src/exe/rbdock.cxx#4 $)

>  <Rbt.Library>
libRbt.so (2013.1, Build901 2013/11/27)

>  <Rbt.Parameter_File>
dock.prm

>  <Rbt.Receptor>
rdock.prm

>  <SCORE>
-9.86045

>  <SCORE.INTER>
-7.22708

>  <SCORE.INTER.CONST>
1

>  <SCORE.INTER.POLAR>
-0.402683

>  <SCORE.INTER.REPUL>
0

>  <SCORE.INTER.ROT>
10

>  <SCORE.INTER.VDW>
-21.258

>  <SCORE.INTER.norm>
-0.18531

>  <SCORE.INTRA>
-2.63336

>  <SCORE.INTRA.DIHEDRAL>
-2.27881

>  <SCORE.INTRA.DIHEDRAL.0>
8.24127

>  <SCORE.INTRA.POLAR>
0

>  <SCORE.INTRA.POLAR.0>
0

>  <SCORE.INTRA.REPUL>
0

>  <SCORE.INTRA.REPUL.0>
0

>  <SCORE.INTRA.VDW>
-1.49396

>  <SCORE.INTRA.VDW.0>
-4.15137

>  <SCORE.INTRA.norm>
-0.0675222

>  <SCORE.RESTR>
0

>  <SCORE.RESTR.CAVITY>
0

>  <SCORE.RESTR.norm>
0

>  <SCORE.SYSTEM>
0

>  <SCORE.SYSTEM.CONST>
0

>  <SCORE.SYSTEM.DIHEDRAL>
0

>  <SCORE.SYSTEM.norm>
0

>  <SCORE.heavy>
39

>  <SCORE.norm>
-0.252832

$$$$
ligands/mol1.pdb
  rDOCK(R)          3D
libRbt.so/2013.1/901 2013/11/27
 45 48  0  0  0  0  0  0  0  0999 V2000
   -6.6034  -35.5110   -1.1780 C   0  0  0  0  0  0
   -5.6348  -35.5471   -0.1616 C   0  0  0  0  0  0
   -5.6107  -34.5426    0.7918 C   0  0  0  0  0  0
   -6.4328  -33.4832    0.7746 N   0  0  0  0  0  0
   -7.3681  -33.4609   -0.2088 C   0  0  0  0  0  0
   -7.5476  -34.4685   -1.1605 C   0  0  0  0  0  0
   -8.6344  -34.5017   -2.0680 N   0  0  0  0  0  0
   -9.4546  -33.4423   -2.4033 C   0  0  0  0  0  0
   -9.4115  -32.3486   -1.8580 O   0  0  0  0  0  0
  -10.3274  -33.7914   -3.4265 N   0  0  0  0  0  0
  -11.3064  -32.9503   -4.0035 C   0  0  0  0  0  0
  -11.7969  -33.1407   -5.2974 C   0  0  0  0  0  0
  -12.8152  -32.3432   -5.8010 C   0  0  0  0  0  0
  -13.3372  -31.3188   -5.0283 C   0  0  0  0  0  0
  -12.8452  -31.0648   -3.7401 C   0  0  0  0  0  0
  -13.3903  -29.9369   -2.8875 C   0  0  0  0  0  0
  -13.1942  -28.5391   -3.4469 C   0  0  0  0  0  0
  -14.1550  -27.9797   -4.3048 C   0  0  0  0  0  0
  -13.9691  -26.7033   -4.8403 C   0  0  0  0  0  0
  -12.8082  -25.9898   -4.5255 C   0  0  0  0  0  0
  -12.5933  -24.3389   -5.1356 S   0  0  0  0  0  0
  -13.5026  -23.4657   -4.4006 O   0  0  0  0  0  0
  -11.1954  -24.0673   -5.2531 O   0  0  0  0  0  0
  -13.1810  -24.4723   -6.7055 N   0  0  0  0  0  0
  -11.8290  -26.5467   -3.7011 C   0  0  0  0  0  0
  -12.0183  -27.8226   -3.1712 C   0  0  0  0  0  0
  -11.8223  -31.8947   -3.2354 C   0  0  0  0  0  0
   -6.5613  -36.5807   -2.2494 C   0  0  0  0  0  0
   -6.7997  -36.0930   -3.6888 C   0  0  0  0  0  0
   -6.3371  -34.7394   -3.9238 N   0  0  0  0  0  0
   -7.0319  -33.8309   -4.6998 C   0  0  0  0  0  0
   -8.0732  -34.1173   -5.2815 O   0  0  0  0  0  0
   -6.3183  -32.4865   -4.8882 C   0  0  0  0  0  0
   -6.5059  -31.9040   -6.2997 C   0  0  0  0  0  0
   -7.8611  -31.2232   -6.5145 C   0  0  0  0  0  0
   -8.1868  -30.2046   -5.4256 C   0  0  0  0  0  0
   -8.0164  -30.7838   -4.0241 C   0  0  0  0  0  0
   -6.6539  -31.4401   -3.8184 C   0  0  0  0  0  0
   -7.3218  -29.0776   -5.5526 O   0  0  0  0  0  0
   -8.9583  -35.4102   -2.3498 H   0  0  0  0  0  0
  -10.1214  -34.6441   -3.9227 H   0  0  0  0  0  0
  -12.8182  -25.2838   -7.2077 H   0  0  0  0  0  0
  -12.9970  -23.5987   -7.1975 H   0  0  0  0  0  0
   -5.5054  -34.4396   -3.4369 H   0  0  0  0  0  0
   -6.4072  -29.4115   -5.5114 H   0  0  0  0  0  0
  1  2  2  0  0  0
  1  6  1  0  0  0
  1 28  1  0  0  0
  2  3  1  0  0  0
  3  4  2  0  0  0
  4  5  1  0  0  0
  5  6  2  0  0  0
  6  7  1  0  0  0
  7  8  1  0  0  0
  7 40  1  0  0  0
  8  9  2  0  0  0
  8 10  1  0  0  0
 10 11  1  0  0  0
 10 41  1  0  0  0
 11 12  2  0  0  0
 11 27  1  0  0  0
 12 13  1  0  0  0
 13 14  2  0  0  0
 14 15  1  0  0  0
 15 16  1  0  0  0
 15 27  2  0  0  0
 16 17  1  0  0  0
 17 18  2  0  0  0
 17 26  1  0  0  0
 18 19  1  0  0  0
 19 20  2  0  0  0
 20 21  1  0  0  0
 20 25  1  0  0  0
 21 22  2  0  0  0
 21 23  2  0  0  0
 21 24  1  0  0  0
 24 42  1  0  0  0
 24 43  1  0  0  0
 25 26  2  0  0  0
 28 29  1  0  0  0
 29 30  1  0  0  0
 30 31  1  0  0  0
 30 44  1  0  0  0
 31 32  2  0  0  0
 31 33  1  0  0  0
 33 34  1  0  0  0
 33 38  1  0  0  0
 34 35  1  0  0  0
 35 36  1  0  0  0
 36 37  1  0  0  0
 36 39  1  0  0  0
 37 38  1  0  0  0
 39 45  1  0  0  0
M  END
>  <AUTHOR>
    GENERATED BY OPEN BABEL 2.3.2

>  <CHROM.1>
-137.66292312,-163.67354760,155.48350254,-62.60853125,88.65373168,72.19662057
-47.26293734,30.97484265,-140.62582804,142.41493197,-56.48063856,-9.77195577
-30.88510695,-3.75616937,0.99138084,-0.19694111,2.72222561

>  <COMPND>
    mol1_3d.pdb 

>  <MASTER>
        0    0    0    0    0    0    0    0   72    0   72    0

>  <Name>
ligands/mol1.pdb

>  <RI>
9.70227e+06

>  <Rbt.Current_Directory>
/home/rodrigo/Desktop/Rodrigo/Proyectos/test_OCONDOR/OCONDOR

>  <Rbt.Executable>
rbdock ($Id: //depot/dev/client3/rdock/2013.1/src/exe/rbdock.cxx#4 $)

>  <Rbt.Library>
libRbt.so (2013.1, Build901 2013/11/27)

>  <Rbt.Parameter_File>
dock.prm

>  <Rbt.Receptor>
rdock.prm

>  <SCORE>
-4.95414

>  <SCORE.INTER>
-5.5163

>  <SCORE.INTER.CONST>
1

>  <SCORE.INTER.POLAR>
-0.67657

>  <SCORE.INTER.REPUL>
0.000444364

>  <SCORE.INTER.ROT>
10

>  <SCORE.INTER.VDW>
-18.6182

>  <SCORE.INTER.norm>
-0.141443

>  <SCORE.INTRA>
0.562154

>  <SCORE.INTRA.DIHEDRAL>
5.15098

>  <SCORE.INTRA.DIHEDRAL.0>
8.24127

>  <SCORE.INTRA.POLAR>
0

>  <SCORE.INTRA.POLAR.0>
0

>  <SCORE.INTRA.REPUL>
0

>  <SCORE.INTRA.REPUL.0>
0

>  <SCORE.INTRA.VDW>
-2.01333

>  <SCORE.INTRA.VDW.0>
-4.15137

>  <SCORE.INTRA.norm>
0.0144142

>  <SCORE.RESTR>
0

>  <SCORE.RESTR.CAVITY>
0

>  <SCORE.RESTR.norm>
0

>  <SCORE.SYSTEM>
0

>  <SCORE.SYSTEM.CONST>
0

>  <SCORE.SYSTEM.DIHEDRAL>
0

>  <SCORE.SYSTEM.norm>
0

>  <SCORE.heavy>
39

>  <SCORE.norm>
-0.127029

$$$$
ligands/mol1.pdb
  rDOCK(R)          3D
libRbt.so/2013.1/901 2013/11/27
 45 48  0  0  0  0  0  0  0  0999 V2000
   -8.3660  -23.1059    0.5112 C   0  0  0  0  0  0
   -7.0838  -23.2002    1.0765 C   0  0  0  0  0  0
   -6.8335  -24.1642    2.0391 C   0  0  0  0  0  0
   -7.7709  -24.9942    2.5196 N   0  0  0  0  0  0
   -9.0050  -24.8980    1.9629 C   0  0  0  0  0  0
   -9.3424  -24.0332    0.9182 C   0  0  0  0  0  0
  -10.5872  -24.0705    0.2437 N   0  0  0  0  0  0
  -11.5552  -25.0484    0.3638 C   0  0  0  0  0  0
  -11.4023  -26.0839    0.9960 O   0  0  0  0  0  0
  -12.7065  -24.6986   -0.3309 N   0  0  0  0  0  0
  -13.8846  -25.4745   -0.4261 C   0  0  0  0  0  0
  -15.0880  -24.9620   -0.9163 C   0  0  0  0  0  0
  -16.2023  -25.7752   -1.0696 C   0  0  0  0  0  0
  -16.1399  -27.1096   -0.7027 C   0  0  0  0  0  0
  -14.9651  -27.6557   -0.1663 C   0  0  0  0  0  0
  -14.8837  -29.1080    0.2584 C   0  0  0  0  0  0
  -13.6122  -29.8365   -0.1388 C   0  0  0  0  0  0
  -13.6649  -30.9072   -1.0460 C   0  0  0  0  0  0
  -12.5018  -31.5956   -1.3977 C   0  0  0  0  0  0
  -11.2822  -31.2180   -0.8270 C   0  0  0  0  0  0
   -9.7861  -32.0317   -1.3209 S   0  0  0  0  0  0
   -9.5904  -31.7870   -2.7461 O   0  0  0  0  0  0
   -8.7724  -31.7655   -0.3498 O   0  0  0  0  0  0
  -10.1989  -33.6517   -1.1393 N   0  0  0  0  0  0
  -11.2198  -30.1775    0.1016 C   0  0  0  0  0  0
  -12.3846  -29.4952    0.4513 C   0  0  0  0  0  0
  -13.8357  -26.8212   -0.0329 C   0  0  0  0  0  0
   -8.6328  -21.9963   -0.4847 C   0  0  0  0  0  0
   -9.6495  -20.9310   -0.0400 C   0  0  0  0  0  0
  -10.3628  -20.3175   -1.1429 N   0  0  0  0  0  0
  -11.4493  -20.9098   -1.7586 C   0  0  0  0  0  0
  -11.8652  -22.0196   -1.4426 O   0  0  0  0  0  0
  -11.9964  -20.1291   -2.9600 C   0  0  0  0  0  0
  -11.0654  -20.1871   -4.1834 C   0  0  0  0  0  0
  -11.1652  -21.4933   -4.9772 C   0  0  0  0  0  0
  -12.6040  -21.8565   -5.3336 C   0  0  0  0  0  0
  -13.5273  -21.8148   -4.1193 C   0  0  0  0  0  0
  -13.4324  -20.4997   -3.3506 C   0  0  0  0  0  0
  -13.1009  -20.9385   -6.3057 O   0  0  0  0  0  0
  -10.7007  -23.4370   -0.5279 H   0  0  0  0  0  0
  -12.7771  -23.7394   -0.6316 H   0  0  0  0  0  0
   -9.5532  -34.1713   -0.5432 H   0  0  0  0  0  0
  -10.2929  -34.0694   -2.0644 H   0  0  0  0  0  0
  -10.0860  -19.3865   -1.4170 H   0  0  0  0  0  0
  -13.0141  -20.0447   -5.9274 H   0  0  0  0  0  0
  1  2  2  0  0  0
  1  6  1  0  0  0
  1 28  1  0  0  0
  2  3  1  0  0  0
  3  4  2  0  0  0
  4  5  1  0  0  0
  5  6  2  0  0  0
  6  7  1  0  0  0
  7  8  1  0  0  0
  7 40  1  0  0  0
  8  9  2  0  0  0
  8 10  1  0  0  0
 10 11  1  0  0  0
 10 41  1  0  0  0
 11 12  2  0  0  0
 11 27  1  0  0  0
 12 13  1  0  0  0
 13 14  2  0  0  0
 14 15  1  0  0  0
 15 16  1  0  0  0
 15 27  2  0  0  0
 16 17  1  0  0  0
 17 18  2  0  0  0
 17 26  1  0  0  0
 18 19  1  0  0  0
 19 20  2  0  0  0
 20 21  1  0  0  0
 20 25  1  0  0  0
 21 22  2  0  0  0
 21 23  2  0  0  0
 21 24  1  0  0  0
 24 42  1  0  0  0
 24 43  1  0  0  0
 25 26  2  0  0  0
 28 29  1  0  0  0
 29 30  1  0  0  0
 30 31  1  0  0  0
 30 44  1  0  0  0
 31 32  2  0  0  0
 31 33  1  0  0  0
 33 34  1  0  0  0
 33 38  1  0  0  0
 34 35  1  0  0  0
 35 36  1  0  0  0
 36 37  1  0  0  0
 36 39  1  0  0  0
 37 38  1  0  0  0
 39 45  1  0  0  0
M  END
>  <AUTHOR>
    GENERATED BY OPEN BABEL 2.3.2

>  <CHROM.1>
-114.40351785,168.49540151,167.27309511,137.03791904,-115.08360167,61.79303123
-125.62276679,-151.18043874,80.81726887,71.62502772,-56.91933907,-11.48074317
-25.76310474,-1.02639502,-1.58402767,0.50622121,2.97199028

>  <COMPND>
    mol1_3d.pdb 

>  <MASTER>
        0    0    0    0    0    0    0    0   72    0   72    0

>  <Name>
ligands/mol1.pdb

>  <RI>
9.70227e+06

>  <Rbt.Current_Directory>
/home/rodrigo/Desktop/Rodrigo/Proyectos/test_OCONDOR/OCONDOR

>  <Rbt.Executable>
rbdock ($Id: //depot/dev/client3/rdock/2013.1/src/exe/rbdock.cxx#4 $)

>  <Rbt.Library>
libRbt.so (2013.1, Build901 2013/11/27)

>  <Rbt.Parameter_File>
dock.prm

>  <Rbt.Receptor>
rdock.prm

>  <SCORE>
-8.86556

>  <SCORE.INTER>
-5.15017

>  <SCORE.INTER.CONST>
1

>  <SCORE.INTER.POLAR>
-0.454322

>  <SCORE.INTER.REPUL>
0.0307684

>  <SCORE.INTER.ROT>
10

>  <SCORE.INTER.VDW>
-19.1593

>  <SCORE.INTER.norm>
-0.132056

>  <SCORE.INTRA>
-3.71539

>  <SCORE.INTRA.DIHEDRAL>
3.27143

>  <SCORE.INTRA.DIHEDRAL.0>
8.24127

>  <SCORE.INTRA.POLAR>
-1.93665

>  <SCORE.INTRA.POLAR.0>
0

>  <SCORE.INTRA.REPUL>
0

>  <SCORE.INTRA.REPUL.0>
0

>  <SCORE.INTRA.VDW>
1.23349

>  <SCORE.INTRA.VDW.0>
-4.15137

>  <SCORE.INTRA.norm>
-0.0952665

>  <SCORE.RESTR>
0

>  <SCORE.RESTR.CAVITY>
0

>  <SCORE.RESTR.norm>
0

>  <SCORE.SYSTEM>
0

>  <SCORE.SYSTEM.CONST>
0

>  <SCORE.SYSTEM.DIHEDRAL>
0

>  <SCORE.SYSTEM.norm>
0

>  <SCORE.heavy>
39

>  <SCORE.norm>
-0.227322

$$$$
ligands/mol1.pdb
  rDOCK(R)          3D
libRbt.so/2013.1/901 2013/11/27
 45 48  0  0  0  0  0  0  0  0999 V2000
   -8.4453  -30.3878   -3.8164 C   0  0  0  0  0  0
   -7.3194  -31.2197   -3.7022 C   0  0  0  0  0  0
   -7.2402  -32.1174   -2.6504 C   0  0  0  0  0  0
   -8.1610  -32.2062   -1.6795 N   0  0  0  0  0  0
   -9.2471  -31.4015   -1.8023 C   0  0  0  0  0  0
   -9.4780  -30.5327   -2.8724 C   0  0  0  0  0  0
  -10.6937  -29.8311   -3.0612 N   0  0  0  0  0  0
  -11.7329  -29.7344   -2.1566 C   0  0  0  0  0  0
  -11.7778  -30.3523   -1.1024 O   0  0  0  0  0  0
  -12.7089  -28.8555   -2.6101 N   0  0  0  0  0  0
  -13.9094  -28.5316   -1.9373 C   0  0  0  0  0  0
  -14.3735  -29.2511   -0.8336 C   0  0  0  0  0  0
  -15.5146  -28.8551   -0.1499 C   0  0  0  0  0  0
  -16.2300  -27.7498   -0.5807 C   0  0  0  0  0  0
  -15.8243  -27.0237   -1.7095 C   0  0  0  0  0  0
  -16.6044  -25.8237   -2.2070 C   0  0  0  0  0  0
  -15.9666  -24.4716   -1.9417 C   0  0  0  0  0  0
  -14.7218  -24.1538   -2.5085 C   0  0  0  0  0  0
  -14.1197  -22.9205   -2.2497 C   0  0  0  0  0  0
  -14.7618  -22.0070   -1.4078 C   0  0  0  0  0  0
  -14.0474  -20.4080   -1.1305 S   0  0  0  0  0  0
  -12.6797  -20.4321   -1.6388 O   0  0  0  0  0  0
  -14.9915  -19.4065   -1.5143 O   0  0  0  0  0  0
  -13.9608  -20.3555    0.5480 N   0  0  0  0  0  0
  -15.9834  -22.3227   -0.8105 C   0  0  0  0  0  0
  -16.5790  -23.5566   -1.0701 C   0  0  0  0  0  0
  -14.6529  -27.4277   -2.3836 C   0  0  0  0  0  0
   -8.4729  -29.3647   -4.9329 C   0  0  0  0  0  0
   -8.0819  -27.9313   -4.5341 C   0  0  0  0  0  0
   -8.5551  -26.9241   -5.4631 N   0  0  0  0  0  0
   -9.1683  -25.7542   -5.0563 C   0  0  0  0  0  0
   -9.3945  -25.5007   -3.8777 O   0  0  0  0  0  0
   -9.6696  -24.8719   -6.2064 C   0  0  0  0  0  0
  -10.7110  -25.5791   -7.0908 C   0  0  0  0  0  0
  -12.1192  -25.6074   -6.4888 C   0  0  0  0  0  0
  -12.5928  -24.2292   -6.0354 C   0  0  0  0  0  0
  -11.5685  -23.5311   -5.1453 C   0  0  0  0  0  0
  -10.1752  -23.4922   -5.7674 C   0  0  0  0  0  0
  -12.8289  -23.4067   -7.1766 O   0  0  0  0  0  0
  -10.9028  -29.5364   -3.9988 H   0  0  0  0  0  0
  -12.4557  -28.2618   -3.3841 H   0  0  0  0  0  0
  -13.5402  -19.4971    0.9066 H   0  0  0  0  0  0
  -13.4758  -21.1902    0.8753 H   0  0  0  0  0  0
   -8.3592  -27.0648   -6.4431 H   0  0  0  0  0  0
  -11.9991  -23.3783   -7.6867 H   0  0  0  0  0  0
  1  2  2  0  0  0
  1  6  1  0  0  0
  1 28  1  0  0  0
  2  3  1  0  0  0
  3  4  2  0  0  0
  4  5  1  0  0  0
  5  6  2  0  0  0
  6  7  1  0  0  0
  7  8  1  0  0  0
  7 40  1  0  0  0
  8  9  2  0  0  0
  8 10  1  0  0  0
 10 11  1  0  0  0
 10 41  1  0  0  0
 11 12  2  0  0  0
 11 27  1  0  0  0
 12 13  1  0  0  0
 13 14  2  0  0  0
 14 15  1  0  0  0
 15 16  1  0  0  0
 15 27  2  0  0  0
 16 17  1  0  0  0
 17 18  2  0  0  0
 17 26  1  0  0  0
 18 19  1  0  0  0
 19 20  2  0  0  0
 20 21  1  0  0  0
 20 25  1  0  0  0
 21 22  2  0  0  0
 21 23  2  0  0  0
 21 24  1  0  0  0
 24 42  1  0  0  0
 24 43  1  0  0  0
 25 26  2  0  0  0
 28 29  1  0  0  0
 29 30  1  0  0  0
 30 31  1  0  0  0
 30 44  1  0  0  0
 31 32  2  0  0  0
 31 33  1  0  0  0
 33 34  1  0  0  0
 33 38  1  0  0  0
 34 35  1  0  0  0
 35 36  1  0  0  0
 36 37  1  0  0  0
 36 39  1  0  0  0
 37 38  1  0  0  0
 39 45  1  0  0  0
M  END
>  <AUTHOR>
    GENERATED BY OPEN BABEL 2.3.2

>  <CHROM.1>
-98.79229998,-171.52101469,-12.06566459,106.28803062,62.33901662,-12.78074544
178.36752251,-159.65693512,134.09473692,60.20468605,-56.88950656,-12.21601750
-26.04874793,-2.96298167,-0.81224788,0.65691229,-0.33276956

>  <COMPND>
    mol1_3d.pdb 

>  <MASTER>
        0    0    0    0    0    0    0    0   72    0   72    0

>  <Name>
ligands/mol1.pdb

>  <RI>
9.70227e+06

>  <Rbt.Current_Directory>
/home/rodrigo/Desktop/Rodrigo/Proyectos/test_OCONDOR/OCONDOR

>  <Rbt.Executable>
rbdock ($Id: //depot/dev/client3/rdock/2013.1/src/exe/rbdock.cxx#4 $)

>  <Rbt.Library>
libRbt.so (2013.1, Build901 2013/11/27)

>  <Rbt.Parameter_File>
dock.prm

>  <Rbt.Receptor>
rdock.prm

>  <SCORE>
-3.79518

>  <SCORE.INTER>
-5.04772

>  <SCORE.INTER.CONST>
1

>  <SCORE.INTER.POLAR>
0

>  <SCORE.INTER.REPUL>
0.0275508

>  <SCORE.INTER.ROT>
10

>  <SCORE.INTER.VDW>
-20.5855

>  <SCORE.INTER.norm>
-0.129429

>  <SCORE.INTRA>
1.25254

>  <SCORE.INTRA.DIHEDRAL>
0.0594135

>  <SCORE.INTRA.DIHEDRAL.0>
8.24127

>  <SCORE.INTRA.POLAR>
0

>  <SCORE.INTRA.POLAR.0>
0

>  <SCORE.INTRA.REPUL>
0

>  <SCORE.INTRA.REPUL.0>
0

>  <SCORE.INTRA.VDW>
1.22284

>  <SCORE.INTRA.VDW.0>
-4.15137

>  <SCORE.INTRA.norm>
0.0321165

>  <SCORE.RESTR>
0

>  <SCORE.RESTR.CAVITY>
0

>  <SCORE.RESTR.norm>
0

>  <SCORE.SYSTEM>
0

>  <SCORE.SYSTEM.CONST>
0

>  <SCORE.SYSTEM.DIHEDRAL>
0

>  <SCORE.SYSTEM.norm>
0

>  <SCORE.heavy>
39

>  <SCORE.norm>
-0.0973123

$$$$
ligands/mol1.pdb
  rDOCK(R)          3D
libRbt.so/2013.1/901 2013/11/27
 45 48  0  0  0  0  0  0  0  0999 V2000
   -8.2134  -29.5170   -5.4056 C   0  0  0  0  0  0
   -7.7187  -30.3531   -6.4200 C   0  0  0  0  0  0
   -8.2916  -30.3066   -7.6802 C   0  0  0  0  0  0
   -9.3490  -29.5409   -7.9870 N   0  0  0  0  0  0
   -9.8158  -28.7333   -7.0010 C   0  0  0  0  0  0
   -9.2530  -28.6253   -5.7264 C   0  0  0  0  0  0
   -9.6535  -27.6558   -4.7747 N   0  0  0  0  0  0
  -10.6311  -26.6953   -4.9453 C   0  0  0  0  0  0
  -11.2042  -26.4877   -6.0054 O   0  0  0  0  0  0
  -10.8623  -26.0033   -3.7628 N   0  0  0  0  0  0
  -11.7889  -24.9500   -3.5868 C   0  0  0  0  0  0
  -12.3478  -24.2499   -4.6586 C   0  0  0  0  0  0
  -13.3141  -23.2755   -4.4505 C   0  0  0  0  0  0
  -13.7133  -22.9620   -3.1616 C   0  0  0  0  0  0
  -13.1476  -23.6096   -2.0540 C   0  0  0  0  0  0
  -13.5576  -23.2667   -0.6361 C   0  0  0  0  0  0
  -13.0236  -24.1925    0.4424 C   0  0  0  0  0  0
  -11.6658  -24.1539    0.7984 C   0  0  0  0  0  0
  -11.1644  -25.0187    1.7737 C   0  0  0  0  0  0
  -12.0250  -25.9359    2.3851 C   0  0  0  0  0  0
  -11.4208  -26.9875    3.6786 S   0  0  0  0  0  0
  -10.4197  -26.2416    4.4341 O   0  0  0  0  0  0
  -12.5300  -27.6349    4.3047 O   0  0  0  0  0  0
  -10.6120  -28.1764    2.8067 N   0  0  0  0  0  0
  -13.3697  -26.0084    2.0173 C   0  0  0  0  0  0
  -13.8646  -25.1444    1.0410 C   0  0  0  0  0  0
  -12.1795  -24.6098   -2.2822 C   0  0  0  0  0  0
   -7.6183  -29.6405   -4.0183 C   0  0  0  0  0  0
   -8.3915  -30.5394   -3.0382 C   0  0  0  0  0  0
   -8.5830  -31.8919   -3.5235 N   0  0  0  0  0  0
   -7.5331  -32.7348   -3.8360 C   0  0  0  0  0  0
   -6.3596  -32.3850   -3.7642 O   0  0  0  0  0  0
   -7.9620  -34.0884   -4.4154 C   0  0  0  0  0  0
   -8.8552  -33.9487   -5.6602 C   0  0  0  0  0  0
   -8.0832  -33.6347   -6.9453 C   0  0  0  0  0  0
   -6.9179  -34.5919   -7.1801 C   0  0  0  0  0  0
   -6.0211  -34.7212   -5.9522 C   0  0  0  0  0  0
   -6.8017  -35.0547   -4.6838 C   0  0  0  0  0  0
   -7.4217  -35.8861   -7.5050 O   0  0  0  0  0  0
   -9.0519  -27.5295   -3.9799 H   0  0  0  0  0  0
  -10.4785  -26.4065   -2.9227 H   0  0  0  0  0  0
  -11.2376  -28.8204    2.3206 H   0  0  0  0  0  0
   -9.9698  -28.6599    3.4335 H   0  0  0  0  0  0
   -9.5281  -32.2434   -3.5641 H   0  0  0  0  0  0
   -7.9061  -35.8028   -8.3464 H   0  0  0  0  0  0
  1  2  2  0  0  0
  1  6  1  0  0  0
  1 28  1  0  0  0
  2  3  1  0  0  0
  3  4  2  0  0  0
  4  5  1  0  0  0
  5  6  2  0  0  0
  6  7  1  0  0  0
  7  8  1  0  0  0
  7 40  1  0  0  0
  8  9  2  0  0  0
  8 10  1  0  0  0
 10 11  1  0  0  0
 10 41  1  0  0  0
 11 12  2  0  0  0
 11 27  1  0  0  0
 12 13  1  0  0  0
 13 14  2  0  0  0
 14 15  1  0  0  0
 15 16  1  0  0  0
 15 27  2  0  0  0
 16 17  1  0  0  0
 17 18  2  0  0  0
 17 26  1  0  0  0
 18 19  1  0  0  0
 19 20  2  0  0  0
 20 21  1  0  0  0
 20 25  1  0  0  0
 21 22  2  0  0  0
 21 23  2  0  0  0
 21 24  1  0  0  0
 24 42  1  0  0  0
 24 43  1  0  0  0
 25 26  2  0  0  0
 28 29  1  0  0  0
 29 30  1  0  0  0
 30 31  1  0  0  0
 30 44  1  0  0  0
 31 32  2  0  0  0
 31 33  1  0  0  0
 33 34  1  0  0  0
 33 38  1  0  0  0
 34 35  1  0  0  0
 35 36  1  0  0  0
 36 37  1  0  0  0
 36 39  1  0  0  0
 37 38  1  0  0  0
 39 45  1  0  0  0
M  END
>  <AUTHOR>
    GENERATED BY OPEN BABEL 2.3.2

>  <CHROM.1>
-96.04425131,178.48504197,-16.66004238,170.87317777,72.42065323,33.89834326
-72.92885596,56.58043094,59.86510811,55.73536320,63.70701446,-10.13726853
-28.50986840,-2.75895098,0.53209762,1.07842737,-1.42346286

>  <COMPND>
    mol1_3d.pdb 

>  <MASTER>
        0    0    0    0    0    0    0    0   72    0   72    0

>  <Name>
ligands/mol1.pdb

>  <RI>
9.70227e+06

>  <Rbt.Current_Directory>
/home/rodrigo/Desktop/Rodrigo/Proyectos/test_OCONDOR/OCONDOR

>  <Rbt.Executable>
rbdock ($Id: //depot/dev/client3/rdock/2013.1/src/exe/rbdock.cxx#4 $)

>  <Rbt.Library>
libRbt.so (2013.1, Build901 2013/11/27)

>  <Rbt.Parameter_File>
dock.prm

>  <Rbt.Receptor>
rdock.prm

>  <SCORE>
-4.67147

>  <SCORE.INTER>
-4.47873

>  <SCORE.INTER.CONST>
1

>  <SCORE.INTER.POLAR>
-0.601718

>  <SCORE.INTER.REPUL>
0.0183237

>  <SCORE.INTER.ROT>
10

>  <SCORE.INTER.VDW>
-17.9245

>  <SCORE.INTER.norm>
-0.114839

>  <SCORE.INTRA>
-0.192747

>  <SCORE.INTRA.DIHEDRAL>
-1.45825

>  <SCORE.INTRA.DIHEDRAL.0>
8.24127

>  <SCORE.INTRA.POLAR>
0

>  <SCORE.INTRA.POLAR.0>
0

>  <SCORE.INTRA.REPUL>
0

>  <SCORE.INTRA.REPUL.0>
0

>  <SCORE.INTRA.VDW>
0.536379

>  <SCORE.INTRA.VDW.0>
-4.15137

>  <SCORE.INTRA.norm>
-0.00494224

>  <SCORE.RESTR>
0

>  <SCORE.RESTR.CAVITY>
0

>  <SCORE.RESTR.norm>
0

>  <SCORE.SYSTEM>
0

>  <SCORE.SYSTEM.CONST>
0

>  <SCORE.SYSTEM.DIHEDRAL>
0

>  <SCORE.SYSTEM.norm>
0

>  <SCORE.heavy>
39

>  <SCORE.norm>
-0.119781

$$$$
