ligands/mol7.pdb
  rDOCK(R)          3D
libRbt.so/2013.1/901 2013/11/27
 46 49  0  0  0  0  0  0  0  0999 V2000
  -13.8971  -19.1476   -1.1772 N   0  0  0  0  0  0
  -13.1926  -20.3768   -0.2798 S   0  0  0  0  0  0
  -11.8989  -20.6025   -0.8419 O   0  0  0  0  0  0
  -13.3850  -20.0084    1.1154 O   0  0  0  0  0  0
  -14.2491  -21.7386   -0.6552 C   0  0  0  0  0  0
  -13.9706  -22.9975   -0.1334 C   0  0  0  0  0  0
  -14.7979  -24.0650   -0.4623 C   0  0  0  0  0  0
  -15.8969  -23.8834   -1.3162 C   0  0  0  0  0  0
  -16.7933  -25.0419   -1.6683 C   0  0  0  0  0  0
  -16.0426  -26.2145   -2.2437 C   0  0  0  0  0  0
  -15.4923  -26.1686   -3.5260 C   0  0  0  0  0  0
  -14.7234  -27.2372   -3.9875 C   0  0  0  0  0  0
  -14.5076  -28.3562   -3.1753 C   0  0  0  0  0  0
  -15.1168  -28.4381   -1.9251 C   0  0  0  0  0  0
  -14.9957  -29.5813   -1.1081 N   0  0  0  0  0  0
  -14.8126  -30.8478   -1.6614 C   0  0  0  0  0  0
  -15.7310  -31.5814   -2.0259 O   0  0  0  0  0  0
  -13.3427  -31.3049   -1.6915 C   0  0  0  0  0  0
  -13.1874  -32.5545   -0.3332 S   0  0  0  0  0  0
  -12.8563  -31.8203   -3.0457 C   0  0  0  0  0  0
  -13.7236  -31.8394   -4.1470 C   0  0  0  0  0  0
  -13.4291  -32.3289   -5.3756 N   0  0  0  0  0  0
  -12.1902  -32.8093   -5.5542 C   0  0  0  0  0  0
  -11.2277  -32.8022   -4.5630 C   0  0  0  0  0  0
  -11.5450  -32.2966   -3.2862 C   0  0  0  0  0  0
  -10.4156  -32.2557   -2.2778 C   0  0  0  0  0  0
   -9.9540  -33.6651   -1.8916 C   0  0  0  0  0  0
   -8.9024  -33.6266   -0.8891 N   0  0  0  0  0  0
   -7.6464  -33.1237   -1.1414 C   0  0  0  0  0  0
   -7.3407  -32.6440   -2.2247 O   0  0  0  0  0  0
   -6.6589  -33.2470    0.0227 C   0  0  0  0  0  0
   -6.3416  -34.7156    0.3544 C   0  0  0  0  0  0
   -5.2403  -35.3480   -0.4962 C   0  0  0  0  0  0
   -3.9938  -34.4879   -0.6299 C   0  0  0  0  0  0
   -3.2778  -34.4840    0.5987 O   0  0  0  0  0  0
   -4.3214  -33.0561   -1.0355 C   0  0  0  0  0  0
   -5.4034  -32.3907   -0.1879 C   0  0  0  0  0  0
  -15.8932  -27.3780   -1.4780 C   0  0  0  0  0  0
  -16.1612  -22.6119   -1.8350 C   0  0  0  0  0  0
  -15.3369  -21.5311   -1.5088 C   0  0  0  0  0  0
  -13.9296  -19.4172   -2.1606 H   0  0  0  0  0  0
  -13.4281  -18.2623   -0.9985 H   0  0  0  0  0  0
  -14.5885  -29.4253   -0.1928 H   0  0  0  0  0  0
  -13.9501  -31.8815    0.5500 H   0  0  0  0  0  0
   -9.0448  -34.1573   -0.0397 H   0  0  0  0  0  0
   -2.4338  -34.0226    0.4398 H   0  0  0  0  0  0
  1  2  1  0  0  0
  1 41  1  0  0  0
  1 42  1  0  0  0
  2  3  2  0  0  0
  2  4  2  0  0  0
  2  5  1  0  0  0
  5  6  2  0  0  0
  5 40  1  0  0  0
  6  7  1  0  0  0
  7  8  2  0  0  0
  8  9  1  0  0  0
  8 39  1  0  0  0
  9 10  1  0  0  0
 10 11  2  0  0  0
 10 38  1  0  0  0
 11 12  1  0  0  0
 12 13  2  0  0  0
 13 14  1  0  0  0
 14 15  1  0  0  0
 14 38  2  0  0  0
 15 16  1  0  0  0
 15 43  1  0  0  0
 16 17  2  0  0  0
 16 18  1  0  0  0
 18 19  1  0  0  0
 18 20  1  0  0  0
 19 44  1  0  0  0
 20 21  2  0  0  0
 20 25  1  0  0  0
 21 22  1  0  0  0
 22 23  2  0  0  0
 23 24  1  0  0  0
 24 25  2  0  0  0
 25 26  1  0  0  0
 26 27  1  0  0  0
 27 28  1  0  0  0
 28 29  1  0  0  0
 28 45  1  0  0  0
 29 30  2  0  0  0
 29 31  1  0  0  0
 31 32  1  0  0  0
 31 37  1  0  0  0
 32 33  1  0  0  0
 33 34  1  0  0  0
 34 35  1  0  0  0
 34 36  1  0  0  0
 35 46  1  0  0  0
 36 37  1  0  0  0
 39 40  2  0  0  0
M  END
>  <AUTHOR>
    GENERATED BY OPEN BABEL 2.3.2

>  <CHROM.1>
57.27516158,177.51644770,-54.72949016,-71.48646049,-28.99916141,-86.52376410
104.82307995,-40.71596650,0.63384250,116.10286474,-177.98595840,-66.84058272
64.91744440,172.76334566,-11.92015962,-28.80708518,-1.55423417,-2.16593667
0.32214303,-2.91760946

>  <COMPND>
    UNNAMED

>  <MASTER>
        0    0    0    0    0    0    0    0   74    0   74    0

>  <Name>
ligands/mol7.pdb

>  <RI>
2.22156e+07

>  <Rbt.Current_Directory>
/home/rodrigo/Desktop/Rodrigo/Proyectos/test_OCONDOR/OCONDOR

>  <Rbt.Executable>
rbdock ($Id: //depot/dev/client3/rdock/2013.1/src/exe/rbdock.cxx#4 $)

>  <Rbt.Library>
libRbt.so (2013.1, Build901 2013/11/27)

>  <Rbt.Parameter_File>
dock.prm

>  <Rbt.Receptor>
rdock.prm

>  <SCORE>
-18.197

>  <SCORE.INTER>
-18.7891

>  <SCORE.INTER.CONST>
1

>  <SCORE.INTER.POLAR>
-1.74199

>  <SCORE.INTER.REPUL>
0.0685108

>  <SCORE.INTER.ROT>
13

>  <SCORE.INTER.VDW>
-31.6089

>  <SCORE.INTER.norm>
-0.469727

>  <SCORE.INTRA>
0.592078

>  <SCORE.INTRA.DIHEDRAL>
-2.14471

>  <SCORE.INTRA.DIHEDRAL.0>
11.1439

>  <SCORE.INTRA.POLAR>
0

>  <SCORE.INTRA.POLAR.0>
0

>  <SCORE.INTRA.REPUL>
0

>  <SCORE.INTRA.REPUL.0>
0

>  <SCORE.INTRA.VDW>
1.66443

>  <SCORE.INTRA.VDW.0>
-6.16825

>  <SCORE.INTRA.norm>
0.0148019

>  <SCORE.RESTR>
0

>  <SCORE.RESTR.CAVITY>
0

>  <SCORE.RESTR.norm>
0

>  <SCORE.SYSTEM>
0

>  <SCORE.SYSTEM.CONST>
0

>  <SCORE.SYSTEM.DIHEDRAL>
0

>  <SCORE.SYSTEM.norm>
0

>  <SCORE.heavy>
40

>  <SCORE.norm>
-0.454925

$$$$
ligands/mol7.pdb
  rDOCK(R)          3D
libRbt.so/2013.1/901 2013/11/27
 46 49  0  0  0  0  0  0  0  0999 V2000
  -14.5875  -19.1020   -1.6769 N   0  0  0  0  0  0
  -15.5052  -19.7147   -2.9399 S   0  0  0  0  0  0
  -16.7348  -18.9877   -2.9410 O   0  0  0  0  0  0
  -14.6174  -19.7502   -4.0931 O   0  0  0  0  0  0
  -15.7933  -21.3683   -2.3977 C   0  0  0  0  0  0
  -17.0446  -21.7308   -1.9104 C   0  0  0  0  0  0
  -17.2457  -23.0309   -1.4613 C   0  0  0  0  0  0
  -16.2013  -23.9682   -1.4887 C   0  0  0  0  0  0
  -16.4236  -25.3772   -1.0039 C   0  0  0  0  0  0
  -15.6524  -26.4014   -1.7950 C   0  0  0  0  0  0
  -15.7139  -26.4420   -3.1892 C   0  0  0  0  0  0
  -14.9125  -27.3427   -3.8910 C   0  0  0  0  0  0
  -14.0542  -28.2094   -3.2051 C   0  0  0  0  0  0
  -14.0455  -28.2236   -1.8120 C   0  0  0  0  0  0
  -13.2593  -29.1365   -1.0788 N   0  0  0  0  0  0
  -13.4762  -30.5108   -1.1690 C   0  0  0  0  0  0
  -14.5813  -31.0260   -1.3355 O   0  0  0  0  0  0
  -12.2087  -31.3549   -0.9420 C   0  0  0  0  0  0
  -12.6217  -32.4979    0.4556 S   0  0  0  0  0  0
  -11.6876  -32.0802   -2.1824 C   0  0  0  0  0  0
  -12.2407  -31.8113   -3.4423 C   0  0  0  0  0  0
  -11.9081  -32.4324   -4.5996 N   0  0  0  0  0  0
  -10.9463  -33.3640   -4.5312 C   0  0  0  0  0  0
  -10.2893  -33.6860   -3.3592 C   0  0  0  0  0  0
  -10.6463  -33.0390   -2.1589 C   0  0  0  0  0  0
   -9.8300  -33.3939   -0.9335 C   0  0  0  0  0  0
   -8.3828  -32.9057   -1.0598 C   0  0  0  0  0  0
   -7.4869  -33.6634   -0.2020 N   0  0  0  0  0  0
   -6.1164  -33.5684   -0.2822 C   0  0  0  0  0  0
   -5.5590  -32.8109   -1.0649 O   0  0  0  0  0  0
   -5.3510  -34.5082    0.6541 C   0  0  0  0  0  0
   -3.8568  -34.5855    0.2954 C   0  0  0  0  0  0
   -2.9903  -33.4751    0.8891 C   0  0  0  0  0  0
   -3.2325  -33.2288    2.3697 C   0  0  0  0  0  0
   -2.6841  -34.2971    3.1312 O   0  0  0  0  0  0
   -4.7134  -33.0765    2.6946 C   0  0  0  0  0  0
   -5.6011  -34.1848    2.1328 C   0  0  0  0  0  0
  -14.8565  -27.3354   -1.1194 C   0  0  0  0  0  0
  -14.9484  -23.5867   -1.9786 C   0  0  0  0  0  0
  -14.7360  -22.2826   -2.4349 C   0  0  0  0  0  0
  -14.3051  -18.1455   -1.8916 H   0  0  0  0  0  0
  -13.8167  -19.7299   -1.4593 H   0  0  0  0  0  0
  -12.3087  -28.8412   -0.8863 H   0  0  0  0  0  0
  -13.5007  -33.2433   -0.2418 H   0  0  0  0  0  0
   -7.8845  -34.4202    0.3389 H   0  0  0  0  0  0
   -1.7282  -34.3264    2.9413 H   0  0  0  0  0  0
  1  2  1  0  0  0
  1 41  1  0  0  0
  1 42  1  0  0  0
  2  3  2  0  0  0
  2  4  2  0  0  0
  2  5  1  0  0  0
  5  6  2  0  0  0
  5 40  1  0  0  0
  6  7  1  0  0  0
  7  8  2  0  0  0
  8  9  1  0  0  0
  8 39  1  0  0  0
  9 10  1  0  0  0
 10 11  2  0  0  0
 10 38  1  0  0  0
 11 12  1  0  0  0
 12 13  2  0  0  0
 13 14  1  0  0  0
 14 15  1  0  0  0
 14 38  2  0  0  0
 15 16  1  0  0  0
 15 43  1  0  0  0
 16 17  2  0  0  0
 16 18  1  0  0  0
 18 19  1  0  0  0
 18 20  1  0  0  0
 19 44  1  0  0  0
 20 21  2  0  0  0
 20 25  1  0  0  0
 21 22  1  0  0  0
 22 23  2  0  0  0
 23 24  1  0  0  0
 24 25  2  0  0  0
 25 26  1  0  0  0
 26 27  1  0  0  0
 27 28  1  0  0  0
 28 29  1  0  0  0
 28 45  1  0  0  0
 29 30  2  0  0  0
 29 31  1  0  0  0
 31 32  1  0  0  0
 31 37  1  0  0  0
 32 33  1  0  0  0
 33 34  1  0  0  0
 34 35  1  0  0  0
 34 36  1  0  0  0
 35 46  1  0  0  0
 36 37  1  0  0  0
 39 40  2  0  0  0
M  END
>  <AUTHOR>
    GENERATED BY OPEN BABEL 2.3.2

>  <CHROM.1>
-68.22406179,105.27101617,144.63364257,-51.22068051,-62.95144550,-33.51609476
123.50595939,69.51553138,8.64679319,-110.54543619,-157.10356113,169.47494205
167.03953151,59.87988894,-11.63471126,-28.74771332,-1.33013325,-2.30287709
0.39300451,-3.04893641

>  <COMPND>
    UNNAMED

>  <MASTER>
        0    0    0    0    0    0    0    0   74    0   74    0

>  <Name>
ligands/mol7.pdb

>  <RI>
2.22156e+07

>  <Rbt.Current_Directory>
/home/rodrigo/Desktop/Rodrigo/Proyectos/test_OCONDOR/OCONDOR

>  <Rbt.Executable>
rbdock ($Id: //depot/dev/client3/rdock/2013.1/src/exe/rbdock.cxx#4 $)

>  <Rbt.Library>
libRbt.so (2013.1, Build901 2013/11/27)

>  <Rbt.Parameter_File>
dock.prm

>  <Rbt.Receptor>
rdock.prm

>  <SCORE>
-11.0191

>  <SCORE.INTER>
-12.974

>  <SCORE.INTER.CONST>
1

>  <SCORE.INTER.POLAR>
-0.938083

>  <SCORE.INTER.REPUL>
0.0699628

>  <SCORE.INTER.ROT>
13

>  <SCORE.INTER.VDW>
-28.5343

>  <SCORE.INTER.norm>
-0.324349

>  <SCORE.INTRA>
1.94325

>  <SCORE.INTRA.DIHEDRAL>
-0.984083

>  <SCORE.INTRA.DIHEDRAL.0>
11.1439

>  <SCORE.INTRA.POLAR>
0

>  <SCORE.INTRA.POLAR.0>
0

>  <SCORE.INTRA.REPUL>
0

>  <SCORE.INTRA.REPUL.0>
0

>  <SCORE.INTRA.VDW>
2.43529

>  <SCORE.INTRA.VDW.0>
-6.16825

>  <SCORE.INTRA.norm>
0.0485811

>  <SCORE.RESTR>
0.0116029

>  <SCORE.RESTR.CAVITY>
0.0116029

>  <SCORE.RESTR.norm>
0.000290072

>  <SCORE.SYSTEM>
0

>  <SCORE.SYSTEM.CONST>
0

>  <SCORE.SYSTEM.DIHEDRAL>
0

>  <SCORE.SYSTEM.norm>
0

>  <SCORE.heavy>
40

>  <SCORE.norm>
-0.275478

$$$$
ligands/mol7.pdb
  rDOCK(R)          3D
libRbt.so/2013.1/901 2013/11/27
 46 49  0  0  0  0  0  0  0  0999 V2000
   -6.8861  -33.9191   -3.3826 N   0  0  0  0  0  0
   -8.1622  -34.6139   -2.5451 S   0  0  0  0  0  0
   -8.1794  -35.9970   -2.9015 O   0  0  0  0  0  0
   -8.0234  -34.1635   -1.1677 O   0  0  0  0  0  0
   -9.5473  -33.7965   -3.2696 C   0  0  0  0  0  0
  -10.2909  -32.8926   -2.5181 C   0  0  0  0  0  0
  -11.3959  -32.2788   -3.0965 C   0  0  0  0  0  0
  -11.7669  -32.5694   -4.4186 C   0  0  0  0  0  0
  -12.9633  -31.9001   -5.0433 C   0  0  0  0  0  0
  -13.9554  -31.3978   -4.0269 C   0  0  0  0  0  0
  -14.9464  -32.2303   -3.5032 C   0  0  0  0  0  0
  -15.7860  -31.7568   -2.4949 C   0  0  0  0  0  0
  -15.6447  -30.4511   -2.0117 C   0  0  0  0  0  0
  -14.7071  -29.5938   -2.5836 C   0  0  0  0  0  0
  -14.5866  -28.2460   -2.1862 N   0  0  0  0  0  0
  -14.9348  -27.2058   -3.0469 C   0  0  0  0  0  0
  -14.9296  -27.2942   -4.2742 O   0  0  0  0  0  0
  -15.2395  -25.8800   -2.3259 C   0  0  0  0  0  0
  -17.0871  -25.7730   -2.2515 S   0  0  0  0  0  0
  -14.5693  -25.7203   -0.9615 C   0  0  0  0  0  0
  -15.2088  -26.1810    0.1978 C   0  0  0  0  0  0
  -14.7463  -26.0406    1.4636 N   0  0  0  0  0  0
  -13.5605  -25.4323    1.6102 C   0  0  0  0  0  0
  -12.8087  -24.9772    0.5441 C   0  0  0  0  0  0
  -13.3007  -25.1221   -0.7687 C   0  0  0  0  0  0
  -12.3854  -24.6651   -1.8856 C   0  0  0  0  0  0
  -13.0209  -23.5402   -2.7100 C   0  0  0  0  0  0
  -13.2283  -22.3442   -1.9107 N   0  0  0  0  0  0
  -14.4238  -22.0551   -1.2934 C   0  0  0  0  0  0
  -15.3873  -22.8071   -1.3515 O   0  0  0  0  0  0
  -14.4620  -20.7083   -0.5650 C   0  0  0  0  0  0
  -13.4254  -20.6390    0.5699 C   0  0  0  0  0  0
  -12.0168  -20.2341    0.1361 C   0  0  0  0  0  0
  -11.9780  -19.0193   -0.7773 C   0  0  0  0  0  0
  -12.2689  -17.8454   -0.0292 O   0  0  0  0  0  0
  -12.9553  -19.1401   -1.9400 C   0  0  0  0  0  0
  -14.3770  -19.5218   -1.5339 C   0  0  0  0  0  0
  -13.8851  -30.0664   -3.5970 C   0  0  0  0  0  0
  -11.0106  -33.4830   -5.1595 C   0  0  0  0  0  0
   -9.8961  -34.1041   -4.5882 C   0  0  0  0  0  0
   -6.0240  -34.4221   -3.1715 H   0  0  0  0  0  0
   -6.8447  -32.9183   -3.2027 H   0  0  0  0  0  0
  -14.7013  -28.0689   -1.1946 H   0  0  0  0  0  0
  -17.2269  -26.6477   -1.2367 H   0  0  0  0  0  0
  -12.5295  -21.6149   -1.9683 H   0  0  0  0  0  0
  -12.2219  -17.0912   -0.6452 H   0  0  0  0  0  0
  1  2  1  0  0  0
  1 41  1  0  0  0
  1 42  1  0  0  0
  2  3  2  0  0  0
  2  4  2  0  0  0
  2  5  1  0  0  0
  5  6  2  0  0  0
  5 40  1  0  0  0
  6  7  1  0  0  0
  7  8  2  0  0  0
  8  9  1  0  0  0
  8 39  1  0  0  0
  9 10  1  0  0  0
 10 11  2  0  0  0
 10 38  1  0  0  0
 11 12  1  0  0  0
 12 13  2  0  0  0
 13 14  1  0  0  0
 14 15  1  0  0  0
 14 38  2  0  0  0
 15 16  1  0  0  0
 15 43  1  0  0  0
 16 17  2  0  0  0
 16 18  1  0  0  0
 18 19  1  0  0  0
 18 20  1  0  0  0
 19 44  1  0  0  0
 20 21  2  0  0  0
 20 25  1  0  0  0
 21 22  1  0  0  0
 22 23  2  0  0  0
 23 24  1  0  0  0
 24 25  2  0  0  0
 25 26  1  0  0  0
 26 27  1  0  0  0
 27 28  1  0  0  0
 28 29  1  0  0  0
 28 45  1  0  0  0
 29 30  2  0  0  0
 29 31  1  0  0  0
 31 32  1  0  0  0
 31 37  1  0  0  0
 32 33  1  0  0  0
 33 34  1  0  0  0
 34 35  1  0  0  0
 34 36  1  0  0  0
 35 46  1  0  0  0
 36 37  1  0  0  0
 39 40  2  0  0  0
M  END
>  <AUTHOR>
    GENERATED BY OPEN BABEL 2.3.2

>  <CHROM.1>
-55.49597908,-111.23026307,-22.97940517,-85.55464786,-111.85218202,-25.39188972
-100.46416333,77.26797682,-88.71047184,63.30853989,64.04803625,-95.39522523
-61.49978129,179.21965813,-12.87360655,-27.50481935,-2.04562889,-1.27960226
-0.15710952,0.24016067

>  <COMPND>
    UNNAMED

>  <MASTER>
        0    0    0    0    0    0    0    0   74    0   74    0

>  <Name>
ligands/mol7.pdb

>  <RI>
2.22156e+07

>  <Rbt.Current_Directory>
/home/rodrigo/Desktop/Rodrigo/Proyectos/test_OCONDOR/OCONDOR

>  <Rbt.Executable>
rbdock ($Id: //depot/dev/client3/rdock/2013.1/src/exe/rbdock.cxx#4 $)

>  <Rbt.Library>
libRbt.so (2013.1, Build901 2013/11/27)

>  <Rbt.Parameter_File>
dock.prm

>  <Rbt.Receptor>
rdock.prm

>  <SCORE>
-13.2925

>  <SCORE.INTER>
-12.8264

>  <SCORE.INTER.CONST>
1

>  <SCORE.INTER.POLAR>
0

>  <SCORE.INTER.REPUL>
0.0406618

>  <SCORE.INTER.ROT>
13

>  <SCORE.INTER.VDW>
-31.4297

>  <SCORE.INTER.norm>
-0.320659

>  <SCORE.INTRA>
-0.466155

>  <SCORE.INTRA.DIHEDRAL>
-2.06072

>  <SCORE.INTRA.DIHEDRAL.0>
11.1439

>  <SCORE.INTRA.POLAR>
0

>  <SCORE.INTRA.POLAR.0>
0

>  <SCORE.INTRA.REPUL>
0

>  <SCORE.INTRA.REPUL.0>
0

>  <SCORE.INTRA.VDW>
0.564203

>  <SCORE.INTRA.VDW.0>
-6.16825

>  <SCORE.INTRA.norm>
-0.0116539

>  <SCORE.RESTR>
0

>  <SCORE.RESTR.CAVITY>
0

>  <SCORE.RESTR.norm>
0

>  <SCORE.SYSTEM>
0

>  <SCORE.SYSTEM.CONST>
0

>  <SCORE.SYSTEM.DIHEDRAL>
0

>  <SCORE.SYSTEM.norm>
0

>  <SCORE.heavy>
40

>  <SCORE.norm>
-0.332313

$$$$
ligands/mol7.pdb
  rDOCK(R)          3D
libRbt.so/2013.1/901 2013/11/27
 46 49  0  0  0  0  0  0  0  0999 V2000
   -4.3465  -32.7704    2.9205 N   0  0  0  0  0  0
   -3.8626  -33.0742    1.3438 S   0  0  0  0  0  0
   -3.1674  -31.9085    0.8985 O   0  0  0  0  0  0
   -3.2442  -34.3919    1.3666 O   0  0  0  0  0  0
   -5.4148  -33.1932    0.5143 C   0  0  0  0  0  0
   -6.0231  -34.4338    0.3548 C   0  0  0  0  0  0
   -7.2326  -34.5124   -0.3260 C   0  0  0  0  0  0
   -7.8332  -33.3595   -0.8554 C   0  0  0  0  0  0
   -9.1455  -33.4479   -1.5901 C   0  0  0  0  0  0
  -10.2847  -32.8064   -0.8415 C   0  0  0  0  0  0
  -10.9983  -33.5033    0.1354 C   0  0  0  0  0  0
  -11.9832  -32.8463    0.8732 C   0  0  0  0  0  0
  -12.2640  -31.4964    0.6341 C   0  0  0  0  0  0
  -11.6067  -30.8185   -0.3903 C   0  0  0  0  0  0
  -11.9163  -29.4831   -0.7218 N   0  0  0  0  0  0
  -13.1470  -28.9221   -0.3832 C   0  0  0  0  0  0
  -14.0969  -29.5617    0.0672 O   0  0  0  0  0  0
  -13.2575  -27.4228   -0.7155 C   0  0  0  0  0  0
  -11.8777  -26.6091    0.2143 S   0  0  0  0  0  0
  -13.2583  -27.0925   -2.2078 C   0  0  0  0  0  0
  -12.0493  -27.0025   -2.9119 C   0  0  0  0  0  0
  -11.9184  -26.6564   -4.2153 N   0  0  0  0  0  0
  -13.0491  -26.4072   -4.8913 C   0  0  0  0  0  0
  -14.3052  -26.5094   -4.3250 C   0  0  0  0  0  0
  -14.4313  -26.8640   -2.9667 C   0  0  0  0  0  0
  -15.8424  -27.0266   -2.4409 C   0  0  0  0  0  0
  -16.5376  -25.6721   -2.2651 C   0  0  0  0  0  0
  -15.6066  -24.6477   -1.8220 N   0  0  0  0  0  0
  -15.4442  -24.3063   -0.4988 C   0  0  0  0  0  0
  -16.0544  -24.8688    0.4003 O   0  0  0  0  0  0
  -14.4736  -23.1484   -0.2480 C   0  0  0  0  0  0
  -13.0474  -23.4814   -0.7201 C   0  0  0  0  0  0
  -12.7820  -23.2311   -2.2044 C   0  0  0  0  0  0
  -13.2693  -21.8783   -2.6985 C   0  0  0  0  0  0
  -12.4230  -20.8503   -2.1993 O   0  0  0  0  0  0
  -14.7100  -21.5990   -2.2885 C   0  0  0  0  0  0
  -14.9992  -21.8192   -0.8054 C   0  0  0  0  0  0
  -10.6385  -31.4822   -1.1309 C   0  0  0  0  0  0
   -7.2069  -32.1203   -0.6891 C   0  0  0  0  0  0
   -5.9917  -32.0298   -0.0042 C   0  0  0  0  0  0
   -4.9216  -33.5430    3.2569 H   0  0  0  0  0  0
   -4.7884  -31.8561    2.9876 H   0  0  0  0  0  0
  -11.1275  -28.8478   -0.7662 H   0  0  0  0  0  0
  -12.2116  -27.1199    1.4152 H   0  0  0  0  0  0
  -15.2065  -24.0416   -2.5263 H   0  0  0  0  0  0
  -12.4179  -20.9269   -1.2273 H   0  0  0  0  0  0
  1  2  1  0  0  0
  1 41  1  0  0  0
  1 42  1  0  0  0
  2  3  2  0  0  0
  2  4  2  0  0  0
  2  5  1  0  0  0
  5  6  2  0  0  0
  5 40  1  0  0  0
  6  7  1  0  0  0
  7  8  2  0  0  0
  8  9  1  0  0  0
  8 39  1  0  0  0
  9 10  1  0  0  0
 10 11  2  0  0  0
 10 38  1  0  0  0
 11 12  1  0  0  0
 12 13  2  0  0  0
 13 14  1  0  0  0
 14 15  1  0  0  0
 14 38  2  0  0  0
 15 16  1  0  0  0
 15 43  1  0  0  0
 16 17  2  0  0  0
 16 18  1  0  0  0
 18 19  1  0  0  0
 18 20  1  0  0  0
 19 44  1  0  0  0
 20 21  2  0  0  0
 20 25  1  0  0  0
 21 22  1  0  0  0
 22 23  2  0  0  0
 23 24  1  0  0  0
 24 25  2  0  0  0
 25 26  1  0  0  0
 26 27  1  0  0  0
 27 28  1  0  0  0
 28 29  1  0  0  0
 28 45  1  0  0  0
 29 30  2  0  0  0
 29 31  1  0  0  0
 31 32  1  0  0  0
 31 37  1  0  0  0
 32 33  1  0  0  0
 33 34  1  0  0  0
 34 35  1  0  0  0
 34 36  1  0  0  0
 35 46  1  0  0  0
 36 37  1  0  0  0
 39 40  2  0  0  0
M  END
>  <AUTHOR>
    GENERATED BY OPEN BABEL 2.3.2

>  <CHROM.1>
174.96723996,-92.92086028,111.22998848,-84.82125453,-21.81212865,-9.14136167
-58.11858686,-53.59169157,-82.43561867,108.91797362,-35.79750673,-95.61188596
-61.93355003,-56.51628565,-11.00153101,-28.59051276,-0.79632970,-0.81440970
-0.21174566,-0.06991080

>  <COMPND>
    UNNAMED

>  <MASTER>
        0    0    0    0    0    0    0    0   74    0   74    0

>  <Name>
ligands/mol7.pdb

>  <RI>
2.22156e+07

>  <Rbt.Current_Directory>
/home/rodrigo/Desktop/Rodrigo/Proyectos/test_OCONDOR/OCONDOR

>  <Rbt.Executable>
rbdock ($Id: //depot/dev/client3/rdock/2013.1/src/exe/rbdock.cxx#4 $)

>  <Rbt.Library>
libRbt.so (2013.1, Build901 2013/11/27)

>  <Rbt.Parameter_File>
dock.prm

>  <Rbt.Receptor>
rdock.prm

>  <SCORE>
-12.7457

>  <SCORE.INTER>
-12.3147

>  <SCORE.INTER.CONST>
1

>  <SCORE.INTER.POLAR>
-1.37768

>  <SCORE.INTER.REPUL>
0.0244907

>  <SCORE.INTER.ROT>
13

>  <SCORE.INTER.VDW>
-26.153

>  <SCORE.INTER.norm>
-0.307867

>  <SCORE.INTRA>
-0.430985

>  <SCORE.INTRA.DIHEDRAL>
-0.560926

>  <SCORE.INTRA.DIHEDRAL.0>
11.1439

>  <SCORE.INTRA.POLAR>
0

>  <SCORE.INTRA.POLAR.0>
0

>  <SCORE.INTRA.REPUL>
0

>  <SCORE.INTRA.REPUL.0>
0

>  <SCORE.INTRA.VDW>
-0.150522

>  <SCORE.INTRA.VDW.0>
-6.16825

>  <SCORE.INTRA.norm>
-0.0107746

>  <SCORE.RESTR>
0

>  <SCORE.RESTR.CAVITY>
0

>  <SCORE.RESTR.norm>
0

>  <SCORE.SYSTEM>
0

>  <SCORE.SYSTEM.CONST>
0

>  <SCORE.SYSTEM.DIHEDRAL>
0

>  <SCORE.SYSTEM.norm>
0

>  <SCORE.heavy>
40

>  <SCORE.norm>
-0.318642

$$$$
ligands/mol7.pdb
  rDOCK(R)          3D
libRbt.so/2013.1/901 2013/11/27
 46 49  0  0  0  0  0  0  0  0999 V2000
   -7.2827  -35.0036   -6.2801 N   0  0  0  0  0  0
   -6.3939  -34.2763   -5.0580 S   0  0  0  0  0  0
   -5.5105  -35.2752   -4.5459 O   0  0  0  0  0  0
   -5.9140  -33.0187   -5.6124 O   0  0  0  0  0  0
   -7.6487  -33.9267   -3.8685 C   0  0  0  0  0  0
   -7.9189  -34.8410   -2.8557 C   0  0  0  0  0  0
   -8.9302  -34.5619   -1.9437 C   0  0  0  0  0  0
   -9.6783  -33.3786   -2.0430 C   0  0  0  0  0  0
  -10.7716  -33.0779   -1.0510 C   0  0  0  0  0  0
  -11.7452  -32.0391   -1.5436 C   0  0  0  0  0  0
  -12.3783  -32.1633   -2.7818 C   0  0  0  0  0  0
  -13.3441  -31.2311   -3.1615 C   0  0  0  0  0  0
  -13.6755  -30.1696   -2.3120 C   0  0  0  0  0  0
  -12.9928  -30.0000   -1.1094 C   0  0  0  0  0  0
  -13.2346  -28.8992   -0.2616 N   0  0  0  0  0  0
  -12.3995  -27.7828   -0.2721 C   0  0  0  0  0  0
  -11.6308  -27.4870    0.6423 O   0  0  0  0  0  0
  -12.5900  -26.8773   -1.5027 C   0  0  0  0  0  0
  -11.5699  -27.6471   -2.8434 S   0  0  0  0  0  0
  -14.0443  -26.6414   -1.9094 C   0  0  0  0  0  0
  -14.4407  -26.8095   -3.2435 C   0  0  0  0  0  0
  -15.6805  -26.5702   -3.7351 N   0  0  0  0  0  0
  -16.6106  -26.1648   -2.8587 C   0  0  0  0  0  0
  -16.3590  -26.0084   -1.5092 C   0  0  0  0  0  0
  -15.0647  -26.2537   -1.0079 C   0  0  0  0  0  0
  -14.8884  -26.1314    0.4914 C   0  0  0  0  0  0
  -14.1051  -24.8684    0.8654 C   0  0  0  0  0  0
  -14.7209  -23.6744    0.3107 N   0  0  0  0  0  0
  -14.3113  -23.1019   -0.8717 C   0  0  0  0  0  0
  -13.4163  -23.5822   -1.5541 O   0  0  0  0  0  0
  -15.0350  -21.8040   -1.2422 C   0  0  0  0  0  0
  -14.7434  -20.6761   -0.2369 C   0  0  0  0  0  0
  -13.4546  -19.8960   -0.4952 C   0  0  0  0  0  0
  -13.2757  -19.4621   -1.9413 C   0  0  0  0  0  0
  -14.1772  -18.4041   -2.2412 O   0  0  0  0  0  0
  -13.4913  -20.6106   -2.9193 C   0  0  0  0  0  0
  -14.7832  -21.3943   -2.6991 C   0  0  0  0  0  0
  -12.0222  -30.9225   -0.7443 C   0  0  0  0  0  0
   -9.3962  -32.4713   -3.0691 C   0  0  0  0  0  0
   -8.3798  -32.7411   -3.9902 C   0  0  0  0  0  0
   -7.9795  -34.3475   -6.6335 H   0  0  0  0  0  0
   -7.6637  -35.8924   -5.9630 H   0  0  0  0  0  0
  -14.2061  -28.7340   -0.0233 H   0  0  0  0  0  0
  -10.4166  -27.6430   -2.1474 H   0  0  0  0  0  0
  -15.3425  -23.1464    0.9093 H   0  0  0  0  0  0
  -15.0763  -18.7262   -2.0451 H   0  0  0  0  0  0
  1  2  1  0  0  0
  1 41  1  0  0  0
  1 42  1  0  0  0
  2  3  2  0  0  0
  2  4  2  0  0  0
  2  5  1  0  0  0
  5  6  2  0  0  0
  5 40  1  0  0  0
  6  7  1  0  0  0
  7  8  2  0  0  0
  8  9  1  0  0  0
  8 39  1  0  0  0
  9 10  1  0  0  0
 10 11  2  0  0  0
 10 38  1  0  0  0
 11 12  1  0  0  0
 12 13  2  0  0  0
 13 14  1  0  0  0
 14 15  1  0  0  0
 14 38  2  0  0  0
 15 16  1  0  0  0
 15 43  1  0  0  0
 16 17  2  0  0  0
 16 18  1  0  0  0
 18 19  1  0  0  0
 18 20  1  0  0  0
 19 44  1  0  0  0
 20 21  2  0  0  0
 20 25  1  0  0  0
 21 22  1  0  0  0
 22 23  2  0  0  0
 23 24  1  0  0  0
 24 25  2  0  0  0
 25 26  1  0  0  0
 26 27  1  0  0  0
 27 28  1  0  0  0
 28 29  1  0  0  0
 28 45  1  0  0  0
 29 30  2  0  0  0
 29 31  1  0  0  0
 31 32  1  0  0  0
 31 37  1  0  0  0
 32 33  1  0  0  0
 33 34  1  0  0  0
 34 35  1  0  0  0
 34 36  1  0  0  0
 35 46  1  0  0  0
 36 37  1  0  0  0
 39 40  2  0  0  0
M  END
>  <AUTHOR>
    GENERATED BY OPEN BABEL 2.3.2

>  <CHROM.1>
175.84599163,92.87687914,-161.16919308,52.61135938,-98.73330750,-109.52773683
-83.19168270,-55.55534105,-130.89528270,75.13665158,55.02460336,-96.29728278
64.92347349,-56.62179311,-11.95446003,-28.11660463,-2.21370795,-0.97421364
0.55506344,-0.12511986

>  <COMPND>
    UNNAMED

>  <MASTER>
        0    0    0    0    0    0    0    0   74    0   74    0

>  <Name>
ligands/mol7.pdb

>  <RI>
2.22156e+07

>  <Rbt.Current_Directory>
/home/rodrigo/Desktop/Rodrigo/Proyectos/test_OCONDOR/OCONDOR

>  <Rbt.Executable>
rbdock ($Id: //depot/dev/client3/rdock/2013.1/src/exe/rbdock.cxx#4 $)

>  <Rbt.Library>
libRbt.so (2013.1, Build901 2013/11/27)

>  <Rbt.Parameter_File>
dock.prm

>  <Rbt.Receptor>
rdock.prm

>  <SCORE>
-13.4937

>  <SCORE.INTER>
-11.5222

>  <SCORE.INTER.CONST>
1

>  <SCORE.INTER.POLAR>
-2.18128

>  <SCORE.INTER.REPUL>
0

>  <SCORE.INTER.ROT>
13

>  <SCORE.INTER.VDW>
-22.5058

>  <SCORE.INTER.norm>
-0.288055

>  <SCORE.INTRA>
-1.9715

>  <SCORE.INTRA.DIHEDRAL>
-2.36664

>  <SCORE.INTRA.DIHEDRAL.0>
11.1439

>  <SCORE.INTRA.POLAR>
0

>  <SCORE.INTRA.POLAR.0>
0

>  <SCORE.INTRA.REPUL>
0

>  <SCORE.INTRA.REPUL.0>
0

>  <SCORE.INTRA.VDW>
-0.788175

>  <SCORE.INTRA.VDW.0>
-6.16825

>  <SCORE.INTRA.norm>
-0.0492874

>  <SCORE.RESTR>
0

>  <SCORE.RESTR.CAVITY>
0

>  <SCORE.RESTR.norm>
0

>  <SCORE.SYSTEM>
0

>  <SCORE.SYSTEM.CONST>
0

>  <SCORE.SYSTEM.DIHEDRAL>
0

>  <SCORE.SYSTEM.norm>
0

>  <SCORE.heavy>
40

>  <SCORE.norm>
-0.337342

$$$$
ligands/mol7.pdb
  rDOCK(R)          3D
libRbt.so/2013.1/901 2013/11/27
 46 49  0  0  0  0  0  0  0  0999 V2000
   -9.8443  -26.6622    1.0355 N   0  0  0  0  0  0
  -11.1674  -25.7659    1.5440 S   0  0  0  0  0  0
  -11.3096  -26.0069    2.9448 O   0  0  0  0  0  0
  -10.9751  -24.4308    0.9964 O   0  0  0  0  0  0
  -12.4832  -26.5508    0.6697 C   0  0  0  0  0  0
  -13.4074  -27.3289    1.3590 C   0  0  0  0  0  0
  -14.4213  -27.9628    0.6501 C   0  0  0  0  0  0
  -14.5119  -27.8303   -0.7443 C   0  0  0  0  0  0
  -15.6138  -28.5163   -1.5090 C   0  0  0  0  0  0
  -15.1396  -29.7303   -2.2647 C   0  0  0  0  0  0
  -15.7953  -30.9581   -2.1556 C   0  0  0  0  0  0
  -15.3847  -32.0339   -2.9430 C   0  0  0  0  0  0
  -14.3158  -31.8907   -3.8348 C   0  0  0  0  0  0
  -13.6117  -30.6899   -3.8918 C   0  0  0  0  0  0
  -12.4772  -30.5270   -4.7137 N   0  0  0  0  0  0
  -11.1898  -30.7139   -4.2124 C   0  0  0  0  0  0
  -10.9406  -31.2427   -3.1295 O   0  0  0  0  0  0
  -10.0856  -30.1058   -5.0964 C   0  0  0  0  0  0
  -10.4213  -28.2844   -5.1208 S   0  0  0  0  0  0
   -8.6583  -30.4519   -4.6730 C   0  0  0  0  0  0
   -8.0295  -29.7272   -3.6509 C   0  0  0  0  0  0
   -6.7520  -29.8979   -3.2328 N   0  0  0  0  0  0
   -6.0429  -30.8641   -3.8339 C   0  0  0  0  0  0
   -6.5632  -31.6797   -4.8203 C   0  0  0  0  0  0
   -7.8912  -31.4907   -5.2532 C   0  0  0  0  0  0
   -8.4099  -32.4716   -6.2841 C   0  0  0  0  0  0
   -8.1457  -33.9218   -5.8648 C   0  0  0  0  0  0
   -8.4042  -34.1238   -4.4489 N   0  0  0  0  0  0
   -7.4163  -34.4459   -3.5466 C   0  0  0  0  0  0
   -6.2423  -34.5531   -3.8744 O   0  0  0  0  0  0
   -7.9072  -34.6946   -2.1173 C   0  0  0  0  0  0
   -7.1478  -35.8497   -1.4415 C   0  0  0  0  0  0
   -5.8190  -35.4598   -0.7946 C   0  0  0  0  0  0
   -5.8977  -34.2140    0.0734 C   0  0  0  0  0  0
   -6.5925  -34.5102    1.2783 O   0  0  0  0  0  0
   -6.5832  -33.0556   -0.6407 C   0  0  0  0  0  0
   -7.9248  -33.4106   -1.2779 C   0  0  0  0  0  0
  -14.0157  -29.6280   -3.0946 C   0  0  0  0  0  0
  -13.5727  -27.0471   -1.4225 C   0  0  0  0  0  0
  -12.5505  -26.4034   -0.7191 C   0  0  0  0  0  0
  -10.0350  -27.6563    1.1627 H   0  0  0  0  0  0
   -8.9955  -26.3345    1.4914 H   0  0  0  0  0  0
  -12.6137  -30.7358   -5.6964 H   0  0  0  0  0  0
  -10.4039  -28.1315   -3.7826 H   0  0  0  0  0  0
   -9.3686  -34.2136   -4.1566 H   0  0  0  0  0  0
   -6.1325  -35.2592    1.7004 H   0  0  0  0  0  0
  1  2  1  0  0  0
  1 41  1  0  0  0
  1 42  1  0  0  0
  2  3  2  0  0  0
  2  4  2  0  0  0
  2  5  1  0  0  0
  5  6  2  0  0  0
  5 40  1  0  0  0
  6  7  1  0  0  0
  7  8  2  0  0  0
  8  9  1  0  0  0
  8 39  1  0  0  0
  9 10  1  0  0  0
 10 11  2  0  0  0
 10 38  1  0  0  0
 11 12  1  0  0  0
 12 13  2  0  0  0
 13 14  1  0  0  0
 14 15  1  0  0  0
 14 38  2  0  0  0
 15 16  1  0  0  0
 15 43  1  0  0  0
 16 17  2  0  0  0
 16 18  1  0  0  0
 18 19  1  0  0  0
 18 20  1  0  0  0
 19 44  1  0  0  0
 20 21  2  0  0  0
 20 25  1  0  0  0
 21 22  1  0  0  0
 22 23  2  0  0  0
 23 24  1  0  0  0
 24 25  2  0  0  0
 25 26  1  0  0  0
 26 27  1  0  0  0
 27 28  1  0  0  0
 28 29  1  0  0  0
 28 45  1  0  0  0
 29 30  2  0  0  0
 29 31  1  0  0  0
 31 32  1  0  0  0
 31 37  1  0  0  0
 32 33  1  0  0  0
 33 34  1  0  0  0
 34 35  1  0  0  0
 34 36  1  0  0  0
 35 46  1  0  0  0
 36 37  1  0  0  0
 39 40  2  0  0  0
M  END
>  <AUTHOR>
    GENERATED BY OPEN BABEL 2.3.2

>  <CHROM.1>
63.61970143,108.93682005,-104.83946451,129.56914941,-94.91109767,13.01089146
62.23307307,55.61344462,-82.30204352,-127.58833528,41.56042510,-114.59597109
141.74719683,55.66528372,-10.29169035,-30.41291252,-2.16270069,-2.38708180
0.50474761,-2.25080332

>  <COMPND>
    UNNAMED

>  <MASTER>
        0    0    0    0    0    0    0    0   74    0   74    0

>  <Name>
ligands/mol7.pdb

>  <RI>
2.22156e+07

>  <Rbt.Current_Directory>
/home/rodrigo/Desktop/Rodrigo/Proyectos/test_OCONDOR/OCONDOR

>  <Rbt.Executable>
rbdock ($Id: //depot/dev/client3/rdock/2013.1/src/exe/rbdock.cxx#4 $)

>  <Rbt.Library>
libRbt.so (2013.1, Build901 2013/11/27)

>  <Rbt.Parameter_File>
dock.prm

>  <Rbt.Receptor>
rdock.prm

>  <SCORE>
-7.82106

>  <SCORE.INTER>
-7.69821

>  <SCORE.INTER.CONST>
1

>  <SCORE.INTER.POLAR>
-0.784527

>  <SCORE.INTER.REPUL>
0.0366629

>  <SCORE.INTER.ROT>
13

>  <SCORE.INTER.VDW>
-23.6141

>  <SCORE.INTER.norm>
-0.192455

>  <SCORE.INTRA>
-0.122843

>  <SCORE.INTRA.DIHEDRAL>
0.277352

>  <SCORE.INTRA.DIHEDRAL.0>
11.1439

>  <SCORE.INTRA.POLAR>
0

>  <SCORE.INTRA.POLAR.0>
0

>  <SCORE.INTRA.REPUL>
0

>  <SCORE.INTRA.REPUL.0>
0

>  <SCORE.INTRA.VDW>
-0.26152

>  <SCORE.INTRA.VDW.0>
-6.16825

>  <SCORE.INTRA.norm>
-0.00307108

>  <SCORE.RESTR>
0

>  <SCORE.RESTR.CAVITY>
0

>  <SCORE.RESTR.norm>
0

>  <SCORE.SYSTEM>
0

>  <SCORE.SYSTEM.CONST>
0

>  <SCORE.SYSTEM.DIHEDRAL>
0

>  <SCORE.SYSTEM.norm>
0

>  <SCORE.heavy>
40

>  <SCORE.norm>
-0.195526

$$$$
ligands/mol7.pdb
  rDOCK(R)          3D
libRbt.so/2013.1/901 2013/11/27
 46 49  0  0  0  0  0  0  0  0999 V2000
  -13.4554  -20.2410   -2.4401 N   0  0  0  0  0  0
  -14.3746  -21.4480   -3.1547 S   0  0  0  0  0  0
  -15.7166  -20.9614   -3.2080 O   0  0  0  0  0  0
  -13.6416  -21.8507   -4.3462 O   0  0  0  0  0  0
  -14.2575  -22.7375   -1.9568 C   0  0  0  0  0  0
  -14.1380  -22.4224   -0.6074 C   0  0  0  0  0  0
  -14.0186  -23.4509    0.3201 C   0  0  0  0  0  0
  -14.0095  -24.7920   -0.0940 C   0  0  0  0  0  0
  -13.8829  -25.9043    0.9142 C   0  0  0  0  0  0
  -14.4356  -27.2151    0.4183 C   0  0  0  0  0  0
  -15.8013  -27.3883    0.1858 C   0  0  0  0  0  0
  -16.2633  -28.5847   -0.3630 C   0  0  0  0  0  0
  -15.3668  -29.6131   -0.6742 C   0  0  0  0  0  0
  -14.0136  -29.4727   -0.3741 C   0  0  0  0  0  0
  -13.0876  -30.5138   -0.5928 N   0  0  0  0  0  0
  -13.5088  -31.7843   -0.9829 C   0  0  0  0  0  0
  -13.7524  -32.7016   -0.1996 O   0  0  0  0  0  0
  -13.5527  -31.9817   -2.5092 C   0  0  0  0  0  0
  -15.3484  -31.9348   -2.9606 S   0  0  0  0  0  0
  -12.7019  -30.9967   -3.3104 C   0  0  0  0  0  0
  -13.2236  -29.7481   -3.6768 C   0  0  0  0  0  0
  -12.5924  -28.8206   -4.4365 N   0  0  0  0  0  0
  -11.3509  -29.1177   -4.8462 C   0  0  0  0  0  0
  -10.7067  -30.2933   -4.5117 C   0  0  0  0  0  0
  -11.3735  -31.2550   -3.7262 C   0  0  0  0  0  0
  -10.5741  -32.4826   -3.3415 C   0  0  0  0  0  0
   -9.5594  -32.1705   -2.2361 C   0  0  0  0  0  0
   -8.8425  -33.3634   -1.8171 N   0  0  0  0  0  0
   -7.8831  -33.3517   -0.8306 C   0  0  0  0  0  0
   -7.5913  -32.3349   -0.2156 O   0  0  0  0  0  0
   -7.1889  -34.6960   -0.5930 C   0  0  0  0  0  0
   -6.1568  -35.0118   -1.6898 C   0  0  0  0  0  0
   -4.7761  -34.3916   -1.4772 C   0  0  0  0  0  0
   -4.2250  -34.5800   -0.0728 C   0  0  0  0  0  0
   -3.8330  -35.9342    0.1126 O   0  0  0  0  0  0
   -5.2335  -34.1880    1.0002 C   0  0  0  0  0  0
   -6.6166  -34.8112    0.8258 C   0  0  0  0  0  0
  -13.5625  -28.2856    0.1860 C   0  0  0  0  0  0
  -14.1272  -25.0917   -1.4548 C   0  0  0  0  0  0
  -14.2502  -24.0651   -2.3957 C   0  0  0  0  0  0
  -13.4759  -19.4044   -3.0236 H   0  0  0  0  0  0
  -12.5209  -20.5835   -2.2277 H   0  0  0  0  0  0
  -12.1697  -30.2247   -0.9119 H   0  0  0  0  0  0
  -15.1565  -32.1430   -4.2776 H   0  0  0  0  0  0
   -8.9210  -34.1865   -2.4001 H   0  0  0  0  0  0
   -3.1166  -36.1173   -0.5229 H   0  0  0  0  0  0
  1  2  1  0  0  0
  1 41  1  0  0  0
  1 42  1  0  0  0
  2  3  2  0  0  0
  2  4  2  0  0  0
  2  5  1  0  0  0
  5  6  2  0  0  0
  5 40  1  0  0  0
  6  7  1  0  0  0
  7  8  2  0  0  0
  8  9  1  0  0  0
  8 39  1  0  0  0
  9 10  1  0  0  0
 10 11  2  0  0  0
 10 38  1  0  0  0
 11 12  1  0  0  0
 12 13  2  0  0  0
 13 14  1  0  0  0
 14 15  1  0  0  0
 14 38  2  0  0  0
 15 16  1  0  0  0
 15 43  1  0  0  0
 16 17  2  0  0  0
 16 18  1  0  0  0
 18 19  1  0  0  0
 18 20  1  0  0  0
 19 44  1  0  0  0
 20 21  2  0  0  0
 20 25  1  0  0  0
 21 22  1  0  0  0
 22 23  2  0  0  0
 23 24  1  0  0  0
 24 25  2  0  0  0
 25 26  1  0  0  0
 26 27  1  0  0  0
 27 28  1  0  0  0
 28 29  1  0  0  0
 28 45  1  0  0  0
 29 30  2  0  0  0
 29 31  1  0  0  0
 31 32  1  0  0  0
 31 37  1  0  0  0
 32 33  1  0  0  0
 33 34  1  0  0  0
 34 35  1  0  0  0
 34 36  1  0  0  0
 35 46  1  0  0  0
 36 37  1  0  0  0
 39 40  2  0  0  0
M  END
>  <AUTHOR>
    GENERATED BY OPEN BABEL 2.3.2

>  <CHROM.1>
-62.60372343,31.55453002,156.57628866,-67.04314009,-7.15228978,-92.51736626
-105.16529056,-178.97050906,-85.84910390,-102.32457850,176.93569484,-179.52039034
76.12312392,62.65189978,-11.84389621,-29.10412435,-1.63624973,-2.17066790
0.09834296,3.09841758

>  <COMPND>
    UNNAMED

>  <MASTER>
        0    0    0    0    0    0    0    0   74    0   74    0

>  <Name>
ligands/mol7.pdb

>  <RI>
2.22156e+07

>  <Rbt.Current_Directory>
/home/rodrigo/Desktop/Rodrigo/Proyectos/test_OCONDOR/OCONDOR

>  <Rbt.Executable>
rbdock ($Id: //depot/dev/client3/rdock/2013.1/src/exe/rbdock.cxx#4 $)

>  <Rbt.Library>
libRbt.so (2013.1, Build901 2013/11/27)

>  <Rbt.Parameter_File>
dock.prm

>  <Rbt.Receptor>
rdock.prm

>  <SCORE>
-7.47298

>  <SCORE.INTER>
-7.24316

>  <SCORE.INTER.CONST>
1

>  <SCORE.INTER.POLAR>
0

>  <SCORE.INTER.REPUL>
0

>  <SCORE.INTER.ROT>
13

>  <SCORE.INTER.VDW>
-25.6432

>  <SCORE.INTER.norm>
-0.181079

>  <SCORE.INTRA>
-0.229819

>  <SCORE.INTRA.DIHEDRAL>
-2.22239

>  <SCORE.INTRA.DIHEDRAL.0>
11.1439

>  <SCORE.INTRA.POLAR>
0

>  <SCORE.INTRA.POLAR.0>
0

>  <SCORE.INTRA.REPUL>
0

>  <SCORE.INTRA.REPUL.0>
0

>  <SCORE.INTRA.VDW>
0.881378

>  <SCORE.INTRA.VDW.0>
-6.16825

>  <SCORE.INTRA.norm>
-0.00574547

>  <SCORE.RESTR>
0

>  <SCORE.RESTR.CAVITY>
0

>  <SCORE.RESTR.norm>
0

>  <SCORE.SYSTEM>
0

>  <SCORE.SYSTEM.CONST>
0

>  <SCORE.SYSTEM.DIHEDRAL>
0

>  <SCORE.SYSTEM.norm>
0

>  <SCORE.heavy>
40

>  <SCORE.norm>
-0.186824

$$$$
ligands/mol7.pdb
  rDOCK(R)          3D
libRbt.so/2013.1/901 2013/11/27
 46 49  0  0  0  0  0  0  0  0999 V2000
  -14.8352  -18.7348   -2.4506 N   0  0  0  0  0  0
  -15.7258  -20.0808   -2.9065 S   0  0  0  0  0  0
  -17.0405  -19.8981   -2.3788 O   0  0  0  0  0  0
  -15.4726  -20.2595   -4.3290 O   0  0  0  0  0  0
  -14.9033  -21.3654   -2.0207 C   0  0  0  0  0  0
  -14.5373  -21.1687   -0.6933 C   0  0  0  0  0  0
  -13.8649  -22.1815   -0.0191 C   0  0  0  0  0  0
  -13.5489  -23.3862   -0.6663 C   0  0  0  0  0  0
  -12.8227  -24.4829    0.0682 C   0  0  0  0  0  0
  -13.6574  -25.7238    0.2499 C   0  0  0  0  0  0
  -14.7942  -25.7247    1.0603 C   0  0  0  0  0  0
  -15.5943  -26.8654    1.1284 C   0  0  0  0  0  0
  -15.2594  -28.0093    0.3952 C   0  0  0  0  0  0
  -14.0859  -28.0375   -0.3552 C   0  0  0  0  0  0
  -13.6658  -29.1953   -1.0422 N   0  0  0  0  0  0
  -13.2958  -30.3494   -0.3529 C   0  0  0  0  0  0
  -13.5798  -30.5718    0.8236 O   0  0  0  0  0  0
  -12.4020  -31.3002   -1.1701 C   0  0  0  0  0  0
  -12.2270  -32.8248   -0.1330 S   0  0  0  0  0  0
  -12.8947  -31.5869   -2.5883 C   0  0  0  0  0  0
  -14.2647  -31.5431   -2.8824 C   0  0  0  0  0  0
  -14.8250  -31.8385   -4.0802 N   0  0  0  0  0  0
  -13.9886  -32.1737   -5.0729 C   0  0  0  0  0  0
  -12.6153  -32.2061   -4.9243 C   0  0  0  0  0  0
  -12.0417  -31.9033   -3.6729 C   0  0  0  0  0  0
  -10.5284  -31.8890   -3.6111 C   0  0  0  0  0  0
   -9.9925  -32.9797   -2.6774 C   0  0  0  0  0  0
   -9.0576  -33.8568   -3.3623 N   0  0  0  0  0  0
   -8.2686  -34.7709   -2.7022 C   0  0  0  0  0  0
   -8.3259  -34.9279   -1.4900 O   0  0  0  0  0  0
   -7.2936  -35.5428   -3.5961 C   0  0  0  0  0  0
   -6.0675  -34.6944   -3.9762 C   0  0  0  0  0  0
   -4.9389  -34.6898   -2.9455 C   0  0  0  0  0  0
   -4.5673  -36.0716   -2.4315 C   0  0  0  0  0  0
   -3.8709  -36.7897   -3.4422 O   0  0  0  0  0  0
   -5.7871  -36.8688   -1.9860 C   0  0  0  0  0  0
   -6.9228  -36.9096   -3.0061 C   0  0  0  0  0  0
  -13.2861  -26.9044   -0.4066 C   0  0  0  0  0  0
  -13.9211  -23.5668   -2.0021 C   0  0  0  0  0  0
  -14.5996  -22.5556   -2.6887 C   0  0  0  0  0  0
  -15.1830  -17.9116   -2.9427 H   0  0  0  0  0  0
  -13.8398  -18.9085   -2.5716 H   0  0  0  0  0  0
  -14.0675  -29.3289   -1.9634 H   0  0  0  0  0  0
  -11.7636  -32.1863    0.9589 H   0  0  0  0  0  0
   -8.8491  -33.6546   -4.3314 H   0  0  0  0  0  0
   -3.0616  -36.2866   -3.6486 H   0  0  0  0  0  0
  1  2  1  0  0  0
  1 41  1  0  0  0
  1 42  1  0  0  0
  2  3  2  0  0  0
  2  4  2  0  0  0
  2  5  1  0  0  0
  5  6  2  0  0  0
  5 40  1  0  0  0
  6  7  1  0  0  0
  7  8  2  0  0  0
  8  9  1  0  0  0
  8 39  1  0  0  0
  9 10  1  0  0  0
 10 11  2  0  0  0
 10 38  1  0  0  0
 11 12  1  0  0  0
 12 13  2  0  0  0
 13 14  1  0  0  0
 14 15  1  0  0  0
 14 38  2  0  0  0
 15 16  1  0  0  0
 15 43  1  0  0  0
 16 17  2  0  0  0
 16 18  1  0  0  0
 18 19  1  0  0  0
 18 20  1  0  0  0
 19 44  1  0  0  0
 20 21  2  0  0  0
 20 25  1  0  0  0
 21 22  1  0  0  0
 22 23  2  0  0  0
 23 24  1  0  0  0
 24 25  2  0  0  0
 25 26  1  0  0  0
 26 27  1  0  0  0
 27 28  1  0  0  0
 28 29  1  0  0  0
 28 45  1  0  0  0
 29 30  2  0  0  0
 29 31  1  0  0  0
 31 32  1  0  0  0
 31 37  1  0  0  0
 32 33  1  0  0  0
 33 34  1  0  0  0
 34 35  1  0  0  0
 34 36  1  0  0  0
 35 46  1  0  0  0
 36 37  1  0  0  0
 39 40  2  0  0  0
M  END
>  <AUTHOR>
    GENERATED BY OPEN BABEL 2.3.2

>  <CHROM.1>
-68.24576596,43.81543929,114.42668445,-66.49155117,-65.54037988,17.17711605
-173.20108713,-55.11766177,-28.66528052,66.41974498,123.92114740,168.79410968
77.32995981,60.83939619,-12.04654353,-28.96500046,-1.95882443,-2.13366196
-0.41137717,2.97024656

>  <COMPND>
    UNNAMED

>  <MASTER>
        0    0    0    0    0    0    0    0   74    0   74    0

>  <Name>
ligands/mol7.pdb

>  <RI>
2.22156e+07

>  <Rbt.Current_Directory>
/home/rodrigo/Desktop/Rodrigo/Proyectos/test_OCONDOR/OCONDOR

>  <Rbt.Executable>
rbdock ($Id: //depot/dev/client3/rdock/2013.1/src/exe/rbdock.cxx#4 $)

>  <Rbt.Library>
libRbt.so (2013.1, Build901 2013/11/27)

>  <Rbt.Parameter_File>
dock.prm

>  <Rbt.Receptor>
rdock.prm

>  <SCORE>
-3.30104

>  <SCORE.INTER>
-7.05482

>  <SCORE.INTER.CONST>
1

>  <SCORE.INTER.POLAR>
0

>  <SCORE.INTER.REPUL>
0.020819

>  <SCORE.INTER.ROT>
13

>  <SCORE.INTER.VDW>
-25.5589

>  <SCORE.INTER.norm>
-0.176371

>  <SCORE.INTRA>
3.75378

>  <SCORE.INTRA.DIHEDRAL>
3.56796

>  <SCORE.INTRA.DIHEDRAL.0>
11.1439

>  <SCORE.INTRA.POLAR>
0

>  <SCORE.INTRA.POLAR.0>
0

>  <SCORE.INTRA.REPUL>
0

>  <SCORE.INTRA.REPUL.0>
0

>  <SCORE.INTRA.VDW>
1.9698

>  <SCORE.INTRA.VDW.0>
-6.16825

>  <SCORE.INTRA.norm>
0.0938446

>  <SCORE.RESTR>
0

>  <SCORE.RESTR.CAVITY>
0

>  <SCORE.RESTR.norm>
0

>  <SCORE.SYSTEM>
0

>  <SCORE.SYSTEM.CONST>
0

>  <SCORE.SYSTEM.DIHEDRAL>
0

>  <SCORE.SYSTEM.norm>
0

>  <SCORE.heavy>
40

>  <SCORE.norm>
-0.082526

$$$$
ligands/mol7.pdb
  rDOCK(R)          3D
libRbt.so/2013.1/901 2013/11/27
 46 49  0  0  0  0  0  0  0  0999 V2000
  -14.5653  -23.0248   -0.5694 N   0  0  0  0  0  0
  -15.4792  -23.8728   -1.6911 S   0  0  0  0  0  0
  -16.8493  -23.6130   -1.3813 O   0  0  0  0  0  0
  -14.8993  -23.5624   -2.9898 O   0  0  0  0  0  0
  -15.0835  -25.5419   -1.2802 C   0  0  0  0  0  0
  -13.7847  -26.0095   -1.4511 C   0  0  0  0  0  0
  -13.4971  -27.3354   -1.1486 C   0  0  0  0  0  0
  -14.5017  -28.1988   -0.6845 C   0  0  0  0  0  0
  -14.1859  -29.6345   -0.3549 C   0  0  0  0  0  0
  -14.4011  -30.5676   -1.5180 C   0  0  0  0  0  0
  -15.6795  -30.8299   -2.0143 C   0  0  0  0  0  0
  -15.8306  -31.6238   -3.1513 C   0  0  0  0  0  0
  -14.7094  -32.1637   -3.7914 C   0  0  0  0  0  0
  -13.4385  -31.9661   -3.2559 C   0  0  0  0  0  0
  -12.2897  -32.5596   -3.8189 N   0  0  0  0  0  0
  -11.7819  -32.1298   -5.0442 C   0  0  0  0  0  0
  -12.3910  -31.4008   -5.8264 O   0  0  0  0  0  0
  -10.4078  -32.7312   -5.3914 C   0  0  0  0  0  0
  -10.7725  -34.2610   -6.3697 S   0  0  0  0  0  0
   -9.4471  -31.7757   -6.0989 C   0  0  0  0  0  0
   -9.1506  -31.9504   -7.4579 C   0  0  0  0  0  0
   -8.2709  -31.2108   -8.1755 N   0  0  0  0  0  0
   -7.6554  -30.2094   -7.5308 C   0  0  0  0  0  0
   -7.8973  -29.9035   -6.2053 C   0  0  0  0  0  0
   -8.8096  -30.6822   -5.4650 C   0  0  0  0  0  0
   -9.0747  -30.2379   -4.0415 C   0  0  0  0  0  0
   -8.3182  -31.1061   -3.0302 C   0  0  0  0  0  0
   -6.8842  -31.0727   -3.2651 N   0  0  0  0  0  0
   -6.2578  -31.8828   -4.1844 C   0  0  0  0  0  0
   -6.8756  -32.6675   -4.8914 O   0  0  0  0  0  0
   -4.7324  -31.7508   -4.2236 C   0  0  0  0  0  0
   -4.0520  -32.6270   -3.1573 C   0  0  0  0  0  0
   -3.8216  -34.0818   -3.5656 C   0  0  0  0  0  0
   -3.2075  -34.2448   -4.9469 C   0  0  0  0  0  0
   -1.8391  -33.8593   -4.9135 O   0  0  0  0  0  0
   -3.9425  -33.4310   -6.0049 C   0  0  0  0  0  0
   -4.1670  -31.9670   -5.6333 C   0  0  0  0  0  0
  -13.2963  -31.1878   -2.1156 C   0  0  0  0  0  0
  -15.8031  -27.7139   -0.5214 C   0  0  0  0  0  0
  -16.1026  -26.3816   -0.8204 C   0  0  0  0  0  0
  -13.6006  -23.3562   -0.5932 H   0  0  0  0  0  0
  -15.0018  -23.0647    0.3491 H   0  0  0  0  0  0
  -11.6173  -32.9294   -3.1563 H   0  0  0  0  0  0
  -11.9000  -34.5755   -5.7031 H   0  0  0  0  0  0
   -6.3116  -30.5715   -2.5985 H   0  0  0  0  0  0
   -1.3632  -34.5281   -4.3873 H   0  0  0  0  0  0
  1  2  1  0  0  0
  1 41  1  0  0  0
  1 42  1  0  0  0
  2  3  2  0  0  0
  2  4  2  0  0  0
  2  5  1  0  0  0
  5  6  2  0  0  0
  5 40  1  0  0  0
  6  7  1  0  0  0
  7  8  2  0  0  0
  8  9  1  0  0  0
  8 39  1  0  0  0
  9 10  1  0  0  0
 10 11  2  0  0  0
 10 38  1  0  0  0
 11 12  1  0  0  0
 12 13  2  0  0  0
 13 14  1  0  0  0
 14 15  1  0  0  0
 14 38  2  0  0  0
 15 16  1  0  0  0
 15 43  1  0  0  0
 16 17  2  0  0  0
 16 18  1  0  0  0
 18 19  1  0  0  0
 18 20  1  0  0  0
 19 44  1  0  0  0
 20 21  2  0  0  0
 20 25  1  0  0  0
 21 22  1  0  0  0
 22 23  2  0  0  0
 23 24  1  0  0  0
 24 25  2  0  0  0
 25 26  1  0  0  0
 26 27  1  0  0  0
 27 28  1  0  0  0
 28 29  1  0  0  0
 28 45  1  0  0  0
 29 30  2  0  0  0
 29 31  1  0  0  0
 31 32  1  0  0  0
 31 37  1  0  0  0
 32 33  1  0  0  0
 33 34  1  0  0  0
 34 35  1  0  0  0
 34 36  1  0  0  0
 35 46  1  0  0  0
 36 37  1  0  0  0
 39 40  2  0  0  0
M  END
>  <AUTHOR>
    GENERATED BY OPEN BABEL 2.3.2

>  <CHROM.1>
165.77969419,-65.15472400,-92.09374578,-67.94687476,70.99689757,-13.31526261
91.99240526,-34.25819298,-108.13677504,80.30732283,58.42550040,-83.95303961
84.32898231,69.14766357,-10.69899162,-30.17164098,-3.72341599,-2.47531523
-0.09947602,-2.76177753

>  <COMPND>
    UNNAMED

>  <MASTER>
        0    0    0    0    0    0    0    0   74    0   74    0

>  <Name>
ligands/mol7.pdb

>  <RI>
2.22156e+07

>  <Rbt.Current_Directory>
/home/rodrigo/Desktop/Rodrigo/Proyectos/test_OCONDOR/OCONDOR

>  <Rbt.Executable>
rbdock ($Id: //depot/dev/client3/rdock/2013.1/src/exe/rbdock.cxx#4 $)

>  <Rbt.Library>
libRbt.so (2013.1, Build901 2013/11/27)

>  <Rbt.Parameter_File>
dock.prm

>  <Rbt.Receptor>
rdock.prm

>  <SCORE>
-7.32462

>  <SCORE.INTER>
-6.40587

>  <SCORE.INTER.CONST>
1

>  <SCORE.INTER.POLAR>
-1.62643

>  <SCORE.INTER.REPUL>
0.0190304

>  <SCORE.INTER.ROT>
13

>  <SCORE.INTER.VDW>
-19.3711

>  <SCORE.INTER.norm>
-0.160147

>  <SCORE.INTRA>
-0.918749

>  <SCORE.INTRA.DIHEDRAL>
0.268209

>  <SCORE.INTRA.DIHEDRAL.0>
11.1439

>  <SCORE.INTRA.POLAR>
0

>  <SCORE.INTRA.POLAR.0>
0

>  <SCORE.INTRA.REPUL>
0

>  <SCORE.INTRA.REPUL.0>
0

>  <SCORE.INTRA.VDW>
-1.05285

>  <SCORE.INTRA.VDW.0>
-6.16825

>  <SCORE.INTRA.norm>
-0.0229687

>  <SCORE.RESTR>
0

>  <SCORE.RESTR.CAVITY>
0

>  <SCORE.RESTR.norm>
0

>  <SCORE.SYSTEM>
0

>  <SCORE.SYSTEM.CONST>
0

>  <SCORE.SYSTEM.DIHEDRAL>
0

>  <SCORE.SYSTEM.norm>
0

>  <SCORE.heavy>
40

>  <SCORE.norm>
-0.183116

$$$$
ligands/mol7.pdb
  rDOCK(R)          3D
libRbt.so/2013.1/901 2013/11/27
 46 49  0  0  0  0  0  0  0  0999 V2000
  -15.4088  -20.6757   -2.4584 N   0  0  0  0  0  0
  -15.3246  -21.1162   -0.8425 S   0  0  0  0  0  0
  -14.8570  -19.9694   -0.1307 O   0  0  0  0  0  0
  -16.5958  -21.7584   -0.5407 O   0  0  0  0  0  0
  -14.0633  -22.3488   -0.8773 C   0  0  0  0  0  0
  -13.0767  -22.3601    0.1031 C   0  0  0  0  0  0
  -12.0745  -23.3216    0.0441 C   0  0  0  0  0  0
  -12.0480  -24.2664   -0.9935 C   0  0  0  0  0  0
  -10.9620  -25.3089   -1.0527 C   0  0  0  0  0  0
  -11.4757  -26.6748   -1.4271 C   0  0  0  0  0  0
  -12.1373  -27.4832   -0.5007 C   0  0  0  0  0  0
  -12.6819  -28.7007   -0.9095 C   0  0  0  0  0  0
  -12.5619  -29.1183   -2.2397 C   0  0  0  0  0  0
  -11.8380  -28.3501   -3.1490 C   0  0  0  0  0  0
  -11.6204  -28.7717   -4.4771 N   0  0  0  0  0  0
  -10.3321  -28.9913   -4.9628 C   0  0  0  0  0  0
   -9.3049  -28.6782   -4.3618 O   0  0  0  0  0  0
  -10.2975  -29.5818   -6.3843 C   0  0  0  0  0  0
   -9.4833  -28.2912   -7.4341 S   0  0  0  0  0  0
   -9.6373  -30.9559   -6.4947 C   0  0  0  0  0  0
   -8.2753  -31.1108   -6.2007 C   0  0  0  0  0  0
   -7.5670  -32.2594   -6.3219 N   0  0  0  0  0  0
   -8.2395  -33.3443   -6.7320 C   0  0  0  0  0  0
   -9.5936  -33.3339   -7.0064 C   0  0  0  0  0  0
  -10.3211  -32.1329   -6.8835 C   0  0  0  0  0  0
  -11.8129  -32.2205   -7.1303 C   0  0  0  0  0  0
  -12.5325  -32.9384   -5.9833 C   0  0  0  0  0  0
  -12.0824  -32.4587   -4.6873 N   0  0  0  0  0  0
  -11.1201  -33.1033   -3.9440 C   0  0  0  0  0  0
  -10.5541  -34.1121   -4.3428 O   0  0  0  0  0  0
  -10.8446  -32.4819   -2.5716 C   0  0  0  0  0  0
  -10.1994  -33.4891   -1.6036 C   0  0  0  0  0  0
   -8.6810  -33.6190   -1.7219 C   0  0  0  0  0  0
   -7.9496  -32.2868   -1.7655 C   0  0  0  0  0  0
   -7.9684  -31.6852   -0.4772 O   0  0  0  0  0  0
   -8.5539  -31.3299   -2.7859 C   0  0  0  0  0  0
  -10.0679  -31.1630   -2.6768 C   0  0  0  0  0  0
  -11.2856  -27.1470   -2.7322 C   0  0  0  0  0  0
  -13.0455  -24.2393   -1.9732 C   0  0  0  0  0  0
  -14.0592  -23.2781   -1.9220 C   0  0  0  0  0  0
  -15.9361  -19.8071   -2.5494 H   0  0  0  0  0  0
  -15.7659  -21.4459   -3.0195 H   0  0  0  0  0  0
  -12.3587  -29.3337   -4.8856 H   0  0  0  0  0  0
   -9.6124  -28.9662   -8.5927 H   0  0  0  0  0  0
  -12.6293  -31.7349   -4.2396 H   0  0  0  0  0  0
   -7.3834  -32.2131    0.0969 H   0  0  0  0  0  0
  1  2  1  0  0  0
  1 41  1  0  0  0
  1 42  1  0  0  0
  2  3  2  0  0  0
  2  4  2  0  0  0
  2  5  1  0  0  0
  5  6  2  0  0  0
  5 40  1  0  0  0
  6  7  1  0  0  0
  7  8  2  0  0  0
  8  9  1  0  0  0
  8 39  1  0  0  0
  9 10  1  0  0  0
 10 11  2  0  0  0
 10 38  1  0  0  0
 11 12  1  0  0  0
 12 13  2  0  0  0
 13 14  1  0  0  0
 14 15  1  0  0  0
 14 38  2  0  0  0
 15 16  1  0  0  0
 15 43  1  0  0  0
 16 17  2  0  0  0
 16 18  1  0  0  0
 18 19  1  0  0  0
 18 20  1  0  0  0
 19 44  1  0  0  0
 20 21  2  0  0  0
 20 25  1  0  0  0
 21 22  1  0  0  0
 22 23  2  0  0  0
 23 24  1  0  0  0
 24 25  2  0  0  0
 25 26  1  0  0  0
 26 27  1  0  0  0
 27 28  1  0  0  0
 28 29  1  0  0  0
 28 45  1  0  0  0
 29 30  2  0  0  0
 29 31  1  0  0  0
 31 32  1  0  0  0
 31 37  1  0  0  0
 32 33  1  0  0  0
 33 34  1  0  0  0
 34 35  1  0  0  0
 34 36  1  0  0  0
 35 46  1  0  0  0
 36 37  1  0  0  0
 39 40  2  0  0  0
M  END
>  <AUTHOR>
    GENERATED BY OPEN BABEL 2.3.2

>  <CHROM.1>
-51.19762306,136.60217320,137.96834876,-77.41187036,-118.50501671,-9.88807429
115.99708520,-177.37045872,-64.14863504,-105.29285916,45.66955753,-97.03752947
158.38529656,70.29963262,-11.35467884,-28.34417851,-3.25335602,2.82544695
-1.14081952,1.59861364

>  <COMPND>
    UNNAMED

>  <MASTER>
        0    0    0    0    0    0    0    0   74    0   74    0

>  <Name>
ligands/mol7.pdb

>  <RI>
2.22156e+07

>  <Rbt.Current_Directory>
/home/rodrigo/Desktop/Rodrigo/Proyectos/test_OCONDOR/OCONDOR

>  <Rbt.Executable>
rbdock ($Id: //depot/dev/client3/rdock/2013.1/src/exe/rbdock.cxx#4 $)

>  <Rbt.Library>
libRbt.so (2013.1, Build901 2013/11/27)

>  <Rbt.Parameter_File>
dock.prm

>  <Rbt.Receptor>
rdock.prm

>  <SCORE>
-5.25824

>  <SCORE.INTER>
-1.69316

>  <SCORE.INTER.CONST>
1

>  <SCORE.INTER.POLAR>
0

>  <SCORE.INTER.REPUL>
0

>  <SCORE.INTER.ROT>
13

>  <SCORE.INTER.VDW>
-20.0932

>  <SCORE.INTER.norm>
-0.042329

>  <SCORE.INTRA>
-3.56508

>  <SCORE.INTRA.DIHEDRAL>
-0.669712

>  <SCORE.INTRA.DIHEDRAL.0>
11.1439

>  <SCORE.INTRA.POLAR>
0

>  <SCORE.INTRA.POLAR.0>
0

>  <SCORE.INTRA.REPUL>
0.000109671

>  <SCORE.INTRA.REPUL.0>
0

>  <SCORE.INTRA.VDW>
-3.23077

>  <SCORE.INTRA.VDW.0>
-6.16825

>  <SCORE.INTRA.norm>
-0.0891271

>  <SCORE.RESTR>
0

>  <SCORE.RESTR.CAVITY>
0

>  <SCORE.RESTR.norm>
0

>  <SCORE.SYSTEM>
0

>  <SCORE.SYSTEM.CONST>
0

>  <SCORE.SYSTEM.DIHEDRAL>
0

>  <SCORE.SYSTEM.norm>
0

>  <SCORE.heavy>
40

>  <SCORE.norm>
-0.131456

$$$$
