ligands/mol2.pdb
  rDOCK(R)          3D
libRbt.so/2013.1/901 2013/11/27
 45 48  0  0  0  0  0  0  0  0999 V2000
  -15.9355  -24.5351    0.8567 N   0  0  0  0  0  0
  -15.9068  -23.5268   -0.5001 S   0  0  0  0  0  0
  -17.2306  -23.0134   -0.7290 O   0  0  0  0  0  0
  -14.7758  -22.6349   -0.3053 O   0  0  0  0  0  0
  -15.5110  -24.6358   -1.8306 C   0  0  0  0  0  0
  -14.2616  -24.5939   -2.4581 C   0  0  0  0  0  0
  -13.9263  -25.5788   -3.3955 C   0  0  0  0  0  0
  -14.8243  -26.6149   -3.7034 C   0  0  0  0  0  0
  -14.3830  -27.7776   -4.5911 C   0  0  0  0  0  0
  -14.0392  -29.0915   -3.8895 C   0  0  0  0  0  0
  -14.6422  -30.3069   -4.2481 C   0  0  0  0  0  0
  -14.2874  -31.5042   -3.6268 C   0  0  0  0  0  0
  -13.2879  -31.5192   -2.6608 C   0  0  0  0  0  0
  -12.6806  -30.3283   -2.2646 C   0  0  0  0  0  0
  -11.6263  -30.4222   -1.3288 N   0  0  0  0  0  0
  -11.0691  -31.6140   -0.9038 C   0  0  0  0  0  0
  -11.6336  -32.6976   -0.8818 O   0  0  0  0  0  0
   -9.7598  -31.3964   -0.5010 N   0  0  0  0  0  0
   -8.6354  -31.9187   -1.1677 C   0  0  0  0  0  0
   -8.3063  -33.2587   -0.9545 C   0  0  0  0  0  0
   -7.1753  -33.8177   -1.5606 C   0  0  0  0  0  0
   -6.8462  -35.2825   -1.4189 C   0  0  0  0  0  0
   -6.4382  -35.9951   -2.7188 C   0  0  0  0  0  0
   -7.2586  -35.6548   -3.8776 N   0  0  0  0  0  0
   -6.7734  -34.8467   -4.8891 C   0  0  0  0  0  0
   -5.6462  -34.3541   -4.8441 O   0  0  0  0  0  0
   -7.7823  -34.5125   -6.0095 C   0  0  0  0  0  0
   -9.1087  -33.9463   -5.4799 C   0  0  0  0  0  0
   -9.1536  -32.4364   -5.2094 C   0  0  0  0  0  0
   -8.3514  -31.5449   -6.1607 C   0  0  0  0  0  0
   -9.1688  -31.1561   -7.2649 O   0  0  0  0  0  0
   -7.0798  -32.1729   -6.7180 C   0  0  0  0  0  0
   -7.2543  -33.6290   -7.1398 C   0  0  0  0  0  0
   -6.4028  -32.9750   -2.3548 C   0  0  0  0  0  0
   -6.6842  -31.6701   -2.5762 N   0  0  0  0  0  0
   -7.7991  -31.1704   -1.9861 C   0  0  0  0  0  0
  -13.0628  -29.1156   -2.8657 C   0  0  0  0  0  0
  -16.0974  -26.5980   -3.1084 C   0  0  0  0  0  0
  -16.4388  -25.6154   -2.1743 C   0  0  0  0  0  0
  -15.8367  -24.0523    1.7504 H   0  0  0  0  0  0
  -15.2849  -25.3268    0.7411 H   0  0  0  0  0  0
  -10.9376  -29.6855   -1.3749 H   0  0  0  0  0  0
   -9.6782  -31.2906    0.4989 H   0  0  0  0  0  0
   -8.0604  -36.2404   -4.0744 H   0  0  0  0  0  0
   -9.4740  -31.9778   -7.6891 H   0  0  0  0  0  0
  1  2  1  0  0  0
  1 40  1  0  0  0
  1 41  1  0  0  0
  2  3  2  0  0  0
  2  4  2  0  0  0
  2  5  1  0  0  0
  5  6  2  0  0  0
  5 39  1  0  0  0
  6  7  1  0  0  0
  7  8  2  0  0  0
  8  9  1  0  0  0
  8 38  1  0  0  0
  9 10  1  0  0  0
 10 11  2  0  0  0
 10 37  1  0  0  0
 11 12  1  0  0  0
 12 13  2  0  0  0
 13 14  1  0  0  0
 14 15  1  0  0  0
 14 37  2  0  0  0
 15 16  1  0  0  0
 15 42  1  0  0  0
 16 17  2  0  0  0
 16 18  1  0  0  0
 18 19  1  0  0  0
 18 43  1  0  0  0
 19 20  2  0  0  0
 19 36  1  0  0  0
 20 21  1  0  0  0
 21 22  1  0  0  0
 21 34  2  0  0  0
 22 23  1  0  0  0
 23 24  1  0  0  0
 24 25  1  0  0  0
 24 44  1  0  0  0
 25 26  2  0  0  0
 25 27  1  0  0  0
 27 28  1  0  0  0
 27 33  1  0  0  0
 28 29  1  0  0  0
 29 30  1  0  0  0
 30 31  1  0  0  0
 30 32  1  0  0  0
 31 45  1  0  0  0
 32 33  1  0  0  0
 34 35  1  0  0  0
 35 36  2  0  0  0
 38 39  2  0  0  0
M  END
>  <AUTHOR>
    GENERATED BY OPEN BABEL 2.3.2

>  <CHROM.1>
-84.88551412,-109.13716610,102.10970340,125.90938833,7.54220481,-26.39575554
-113.30965809,-78.38947495,134.67860024,-43.04466368,106.86742140,52.27850524
-57.64891165,-11.20475703,-30.09863037,-2.92028759,-2.85622202,0.81459880
-1.67947084

>  <COMPND>
    UNNAMED

>  <MASTER>
        0    0    0    0    0    0    0    0   72    0   72    0

>  <Name>
ligands/mol2.pdb

>  <RI>
2.46609e+07

>  <Rbt.Current_Directory>
/home/rodrigo/Desktop/Rodrigo/Proyectos/test_OCONDOR/OCONDOR

>  <Rbt.Executable>
rbdock ($Id: //depot/dev/client3/rdock/2013.1/src/exe/rbdock.cxx#4 $)

>  <Rbt.Library>
libRbt.so (2013.1, Build901 2013/11/27)

>  <Rbt.Parameter_File>
dock.prm

>  <Rbt.Receptor>
rdock.prm

>  <SCORE>
-19.2728

>  <SCORE.INTER>
-15.3141

>  <SCORE.INTER.CONST>
1

>  <SCORE.INTER.POLAR>
-3.21298

>  <SCORE.INTER.REPUL>
0

>  <SCORE.INTER.ROT>
12

>  <SCORE.INTER.VDW>
-21.79

>  <SCORE.INTER.norm>
-0.39267

>  <SCORE.INTRA>
-3.95874

>  <SCORE.INTRA.DIHEDRAL>
-5.72865

>  <SCORE.INTRA.DIHEDRAL.0>
15.348

>  <SCORE.INTRA.POLAR>
0

>  <SCORE.INTRA.POLAR.0>
0

>  <SCORE.INTRA.REPUL>
0

>  <SCORE.INTRA.REPUL.0>
0

>  <SCORE.INTRA.VDW>
-1.09441

>  <SCORE.INTRA.VDW.0>
-3.74855

>  <SCORE.INTRA.norm>
-0.101506

>  <SCORE.RESTR>
0

>  <SCORE.RESTR.CAVITY>
0

>  <SCORE.RESTR.norm>
0

>  <SCORE.SYSTEM>
0

>  <SCORE.SYSTEM.CONST>
0

>  <SCORE.SYSTEM.DIHEDRAL>
0

>  <SCORE.SYSTEM.norm>
0

>  <SCORE.heavy>
39

>  <SCORE.norm>
-0.494176

$$$$
ligands/mol2.pdb
  rDOCK(R)          3D
libRbt.so/2013.1/901 2013/11/27
 45 48  0  0  0  0  0  0  0  0999 V2000
  -13.8014  -21.6858   -2.0534 N   0  0  0  0  0  0
  -14.5552  -21.7980   -0.5442 S   0  0  0  0  0  0
  -13.6283  -21.3811    0.4733 O   0  0  0  0  0  0
  -15.8467  -21.1493   -0.6988 O   0  0  0  0  0  0
  -14.8344  -23.5419   -0.3505 C   0  0  0  0  0  0
  -14.0747  -24.2996    0.5468 C   0  0  0  0  0  0
  -14.4204  -25.6350    0.7883 C   0  0  0  0  0  0
  -15.5281  -26.2185    0.1501 C   0  0  0  0  0  0
  -16.0002  -27.6152    0.5516 C   0  0  0  0  0  0
  -15.2601  -28.8002   -0.0688 C   0  0  0  0  0  0
  -14.0030  -29.2179    0.3945 C   0  0  0  0  0  0
  -13.3591  -30.3268   -0.1542 C   0  0  0  0  0  0
  -13.9791  -31.0705   -1.1516 C   0  0  0  0  0  0
  -15.2191  -30.6740   -1.6509 C   0  0  0  0  0  0
  -15.8241  -31.5114   -2.6145 N   0  0  0  0  0  0
  -15.3556  -31.6750   -3.9050 C   0  0  0  0  0  0
  -15.9975  -31.4819   -4.9267 O   0  0  0  0  0  0
  -14.0343  -32.0956   -3.8691 N   0  0  0  0  0  0
  -13.0751  -31.7569   -4.8421 C   0  0  0  0  0  0
  -12.7866  -32.6932   -5.8369 C   0  0  0  0  0  0
  -11.8122  -32.4238   -6.8049 C   0  0  0  0  0  0
  -11.5430  -33.3781   -7.9410 C   0  0  0  0  0  0
  -10.1435  -34.0150   -7.9493 C   0  0  0  0  0  0
   -9.5932  -34.2818   -6.6236 N   0  0  0  0  0  0
   -8.7723  -33.3679   -5.9891 C   0  0  0  0  0  0
   -8.4439  -32.3083   -6.5226 O   0  0  0  0  0  0
   -8.2057  -33.8230   -4.6265 C   0  0  0  0  0  0
   -6.9438  -33.0525   -4.2084 C   0  0  0  0  0  0
   -7.1610  -31.7140   -3.4900 C   0  0  0  0  0  0
   -8.3676  -31.6266   -2.5521 C   0  0  0  0  0  0
   -7.9880  -32.0288   -1.2357 O   0  0  0  0  0  0
   -9.5719  -32.4626   -2.9677 C   0  0  0  0  0  0
   -9.2023  -33.8560   -3.4679 C   0  0  0  0  0  0
  -11.1474  -31.2046   -6.7098 C   0  0  0  0  0  0
  -11.3924  -30.2777   -5.7549 N   0  0  0  0  0  0
  -12.3570  -30.5680   -4.8459 C   0  0  0  0  0  0
  -15.8532  -29.5352   -1.1223 C   0  0  0  0  0  0
  -16.2354  -25.4567   -0.7955 C   0  0  0  0  0  0
  -15.8929  -24.1240   -1.0431 C   0  0  0  0  0  0
  -12.9684  -22.2657   -2.1594 H   0  0  0  0  0  0
  -13.6551  -20.7004   -2.3197 H   0  0  0  0  0  0
  -16.2308  -32.3630   -2.2560 H   0  0  0  0  0  0
  -13.9310  -32.9999   -3.4343 H   0  0  0  0  0  0
  -10.0443  -34.9926   -6.0616 H   0  0  0  0  0  0
   -7.2745  -31.4283   -0.9554 H   0  0  0  0  0  0
  1  2  1  0  0  0
  1 40  1  0  0  0
  1 41  1  0  0  0
  2  3  2  0  0  0
  2  4  2  0  0  0
  2  5  1  0  0  0
  5  6  2  0  0  0
  5 39  1  0  0  0
  6  7  1  0  0  0
  7  8  2  0  0  0
  8  9  1  0  0  0
  8 38  1  0  0  0
  9 10  1  0  0  0
 10 11  2  0  0  0
 10 37  1  0  0  0
 11 12  1  0  0  0
 12 13  2  0  0  0
 13 14  1  0  0  0
 14 15  1  0  0  0
 14 37  2  0  0  0
 15 16  1  0  0  0
 15 42  1  0  0  0
 16 17  2  0  0  0
 16 18  1  0  0  0
 18 19  1  0  0  0
 18 43  1  0  0  0
 19 20  2  0  0  0
 19 36  1  0  0  0
 20 21  1  0  0  0
 21 22  1  0  0  0
 21 34  2  0  0  0
 22 23  1  0  0  0
 23 24  1  0  0  0
 24 25  1  0  0  0
 24 44  1  0  0  0
 25 26  2  0  0  0
 25 27  1  0  0  0
 27 28  1  0  0  0
 27 33  1  0  0  0
 28 29  1  0  0  0
 29 30  1  0  0  0
 30 31  1  0  0  0
 30 32  1  0  0  0
 31 45  1  0  0  0
 32 33  1  0  0  0
 34 35  1  0  0  0
 35 36  2  0  0  0
 38 39  2  0  0  0
M  END
>  <AUTHOR>
    GENERATED BY OPEN BABEL 2.3.2

>  <CHROM.1>
60.40978444,107.20620149,-82.29160117,77.94426651,-69.55255472,-123.80369797
-147.69852092,-99.30488018,-115.65177197,34.39980783,-93.61514367,158.96758567
59.07912773,-12.63211545,-29.30184605,-2.86846171,-2.02127514,-0.11893270
-2.70796681

>  <COMPND>
    UNNAMED

>  <MASTER>
        0    0    0    0    0    0    0    0   72    0   72    0

>  <Name>
ligands/mol2.pdb

>  <RI>
2.46609e+07

>  <Rbt.Current_Directory>
/home/rodrigo/Desktop/Rodrigo/Proyectos/test_OCONDOR/OCONDOR

>  <Rbt.Executable>
rbdock ($Id: //depot/dev/client3/rdock/2013.1/src/exe/rbdock.cxx#4 $)

>  <Rbt.Library>
libRbt.so (2013.1, Build901 2013/11/27)

>  <Rbt.Parameter_File>
dock.prm

>  <Rbt.Receptor>
rdock.prm

>  <SCORE>
-20.3929

>  <SCORE.INTER>
-14.618

>  <SCORE.INTER.CONST>
1

>  <SCORE.INTER.POLAR>
-0.366982

>  <SCORE.INTER.REPUL>
0.0307737

>  <SCORE.INTER.ROT>
12

>  <SCORE.INTER.VDW>
-30.9241

>  <SCORE.INTER.norm>
-0.374821

>  <SCORE.INTRA>
-5.77485

>  <SCORE.INTRA.DIHEDRAL>
-5.98346

>  <SCORE.INTRA.DIHEDRAL.0>
15.348

>  <SCORE.INTRA.POLAR>
0

>  <SCORE.INTRA.POLAR.0>
0

>  <SCORE.INTRA.REPUL>
0

>  <SCORE.INTRA.REPUL.0>
0

>  <SCORE.INTRA.VDW>
-2.78312

>  <SCORE.INTRA.VDW.0>
-3.74855

>  <SCORE.INTRA.norm>
-0.148073

>  <SCORE.RESTR>
0

>  <SCORE.RESTR.CAVITY>
0

>  <SCORE.RESTR.norm>
0

>  <SCORE.SYSTEM>
0

>  <SCORE.SYSTEM.CONST>
0

>  <SCORE.SYSTEM.DIHEDRAL>
0

>  <SCORE.SYSTEM.norm>
0

>  <SCORE.heavy>
39

>  <SCORE.norm>
-0.522894

$$$$
ligands/mol2.pdb
  rDOCK(R)          3D
libRbt.so/2013.1/901 2013/11/27
 45 48  0  0  0  0  0  0  0  0999 V2000
   -9.9153  -30.3963   -3.4281 N   0  0  0  0  0  0
  -11.0890  -31.3248   -4.2146 S   0  0  0  0  0  0
  -11.2592  -30.8269   -5.5531 O   0  0  0  0  0  0
  -10.7278  -32.7106   -3.9662 O   0  0  0  0  0  0
  -12.5736  -30.9710   -3.3048 C   0  0  0  0  0  0
  -12.7249  -31.3895   -1.9788 C   0  0  0  0  0  0
  -13.8378  -30.9638   -1.2430 C   0  0  0  0  0  0
  -14.7967  -30.1116   -1.8167 C   0  0  0  0  0  0
  -15.9085  -29.5136   -0.9556 C   0  0  0  0  0  0
  -15.5831  -28.2221   -0.2053 C   0  0  0  0  0  0
  -16.0273  -26.9687   -0.6536 C   0  0  0  0  0  0
  -15.7577  -25.8038    0.0646 C   0  0  0  0  0  0
  -15.0734  -25.8719    1.2726 C   0  0  0  0  0  0
  -14.5992  -27.0971    1.7394 C   0  0  0  0  0  0
  -13.9722  -27.1060    3.0054 N   0  0  0  0  0  0
  -12.8328  -26.3858    3.3127 C   0  0  0  0  0  0
  -12.6393  -25.7637    4.3466 O   0  0  0  0  0  0
  -11.9309  -26.4738    2.2626 N   0  0  0  0  0  0
  -10.7127  -25.7703    2.2118 C   0  0  0  0  0  0
  -10.3272  -25.2070    0.9938 C   0  0  0  0  0  0
   -9.1067  -24.5319    0.8779 C   0  0  0  0  0  0
   -8.7060  -23.8388   -0.4000 C   0  0  0  0  0  0
   -8.7323  -22.3022   -0.3526 C   0  0  0  0  0  0
  -10.0258  -21.7309    0.0108 N   0  0  0  0  0  0
  -10.3691  -20.4415   -0.3515 C   0  0  0  0  0  0
   -9.5926  -19.7097   -0.9653 O   0  0  0  0  0  0
  -11.7371  -19.9504    0.1702 C   0  0  0  0  0  0
  -12.0643  -18.5101   -0.2530 C   0  0  0  0  0  0
  -12.7062  -18.3277   -1.6349 C   0  0  0  0  0  0
  -13.6772  -19.4200   -2.0900 C   0  0  0  0  0  0
  -15.0021  -19.0972   -1.6670 O   0  0  0  0  0  0
  -13.3545  -20.8223   -1.5884 C   0  0  0  0  0  0
  -12.9286  -20.8619   -0.1237 C   0  0  0  0  0  0
   -8.3072  -24.4724    2.0158 C   0  0  0  0  0  0
   -8.6423  -25.0145    3.2094 N   0  0  0  0  0  0
   -9.8416  -25.6445    3.2863 C   0  0  0  0  0  0
  -14.8402  -28.2678    0.9980 C   0  0  0  0  0  0
  -14.6563  -29.7582   -3.1695 C   0  0  0  0  0  0
  -13.5490  -30.1830   -3.9099 C   0  0  0  0  0  0
   -9.7071  -30.6898   -2.4731 H   0  0  0  0  0  0
  -10.1228  -29.3899   -3.5146 H   0  0  0  0  0  0
  -14.5941  -27.1737    3.7978 H   0  0  0  0  0  0
  -12.3861  -26.6451    1.3789 H   0  0  0  0  0  0
  -10.7671  -22.3707    0.2671 H   0  0  0  0  0  0
  -15.5781  -19.8176   -1.9795 H   0  0  0  0  0  0
  1  2  1  0  0  0
  1 40  1  0  0  0
  1 41  1  0  0  0
  2  3  2  0  0  0
  2  4  2  0  0  0
  2  5  1  0  0  0
  5  6  2  0  0  0
  5 39  1  0  0  0
  6  7  1  0  0  0
  7  8  2  0  0  0
  8  9  1  0  0  0
  8 38  1  0  0  0
  9 10  1  0  0  0
 10 11  2  0  0  0
 10 37  1  0  0  0
 11 12  1  0  0  0
 12 13  2  0  0  0
 13 14  1  0  0  0
 14 15  1  0  0  0
 14 37  2  0  0  0
 15 16  1  0  0  0
 15 42  1  0  0  0
 16 17  2  0  0  0
 16 18  1  0  0  0
 18 19  1  0  0  0
 18 43  1  0  0  0
 19 20  2  0  0  0
 19 36  1  0  0  0
 20 21  1  0  0  0
 21 22  1  0  0  0
 21 34  2  0  0  0
 22 23  1  0  0  0
 23 24  1  0  0  0
 24 25  1  0  0  0
 24 44  1  0  0  0
 25 26  2  0  0  0
 25 27  1  0  0  0
 27 28  1  0  0  0
 27 33  1  0  0  0
 28 29  1  0  0  0
 29 30  1  0  0  0
 30 31  1  0  0  0
 30 32  1  0  0  0
 31 45  1  0  0  0
 32 33  1  0  0  0
 34 35  1  0  0  0
 35 36  2  0  0  0
 38 39  2  0  0  0
M  END
>  <AUTHOR>
    GENERATED BY OPEN BABEL 2.3.2

>  <CHROM.1>
-178.57528317,-67.28599678,85.45348790,102.20776902,-60.76736299,137.76373612
174.92829766,-138.86413912,108.18141834,-57.33666955,-156.46466728,179.61210230
179.95980266,-12.23516195,-25.82529684,-0.52890330,-1.75745792,0.99402952
0.41976598

>  <COMPND>
    UNNAMED

>  <MASTER>
        0    0    0    0    0    0    0    0   72    0   72    0

>  <Name>
ligands/mol2.pdb

>  <RI>
2.46609e+07

>  <Rbt.Current_Directory>
/home/rodrigo/Desktop/Rodrigo/Proyectos/test_OCONDOR/OCONDOR

>  <Rbt.Executable>
rbdock ($Id: //depot/dev/client3/rdock/2013.1/src/exe/rbdock.cxx#4 $)

>  <Rbt.Library>
libRbt.so (2013.1, Build901 2013/11/27)

>  <Rbt.Parameter_File>
dock.prm

>  <Rbt.Receptor>
rdock.prm

>  <SCORE>
-16.8206

>  <SCORE.INTER>
-13.5919

>  <SCORE.INTER.CONST>
1

>  <SCORE.INTER.POLAR>
0

>  <SCORE.INTER.REPUL>
0.00898685

>  <SCORE.INTER.ROT>
12

>  <SCORE.INTER.VDW>
-31.0368

>  <SCORE.INTER.norm>
-0.348511

>  <SCORE.INTRA>
-3.22873

>  <SCORE.INTRA.DIHEDRAL>
-7.44491

>  <SCORE.INTRA.DIHEDRAL.0>
15.348

>  <SCORE.INTRA.POLAR>
0

>  <SCORE.INTRA.POLAR.0>
0

>  <SCORE.INTRA.REPUL>
0

>  <SCORE.INTRA.REPUL.0>
0

>  <SCORE.INTRA.VDW>
0.493728

>  <SCORE.INTRA.VDW.0>
-3.74855

>  <SCORE.INTRA.norm>
-0.0827879

>  <SCORE.RESTR>
0

>  <SCORE.RESTR.CAVITY>
0

>  <SCORE.RESTR.norm>
0

>  <SCORE.SYSTEM>
0

>  <SCORE.SYSTEM.CONST>
0

>  <SCORE.SYSTEM.DIHEDRAL>
0

>  <SCORE.SYSTEM.norm>
0

>  <SCORE.heavy>
39

>  <SCORE.norm>
-0.431299

$$$$
ligands/mol2.pdb
  rDOCK(R)          3D
libRbt.so/2013.1/901 2013/11/27
 45 48  0  0  0  0  0  0  0  0999 V2000
  -14.6894  -28.8771    1.0204 N   0  0  0  0  0  0
  -15.4557  -28.0475   -0.2377 S   0  0  0  0  0  0
  -16.8694  -28.0052    0.0232 O   0  0  0  0  0  0
  -14.6883  -26.8285   -0.4318 O   0  0  0  0  0  0
  -15.1892  -29.0964   -1.6468 C   0  0  0  0  0  0
  -14.5741  -28.6082   -2.8043 C   0  0  0  0  0  0
  -14.2405  -29.4951   -3.8355 C   0  0  0  0  0  0
  -14.5046  -30.8701   -3.7158 C   0  0  0  0  0  0
  -13.9798  -31.8489   -4.7653 C   0  0  0  0  0  0
  -12.4619  -31.9652   -4.9046 C   0  0  0  0  0  0
  -11.7022  -32.8157   -4.0868 C   0  0  0  0  0  0
  -10.3233  -32.9422   -4.2540 C   0  0  0  0  0  0
   -9.6781  -32.2520   -5.2736 C   0  0  0  0  0  0
  -10.3969  -31.3824   -6.0929 C   0  0  0  0  0  0
   -9.6942  -30.7649   -7.1516 N   0  0  0  0  0  0
   -9.4204  -29.4113   -7.2167 C   0  0  0  0  0  0
   -9.3034  -28.7557   -8.2413 O   0  0  0  0  0  0
   -9.2963  -28.9007   -5.9330 N   0  0  0  0  0  0
  -10.3372  -28.2536   -5.2407 C   0  0  0  0  0  0
  -11.0141  -27.2175   -5.8870 C   0  0  0  0  0  0
  -12.0298  -26.5137   -5.2297 C   0  0  0  0  0  0
  -12.8362  -25.4509   -5.9326 C   0  0  0  0  0  0
  -12.7552  -24.0454   -5.3144 C   0  0  0  0  0  0
  -13.4128  -23.9171   -4.0172 N   0  0  0  0  0  0
  -13.8196  -22.6862   -3.5365 C   0  0  0  0  0  0
  -13.6186  -21.6450   -4.1616 O   0  0  0  0  0  0
  -14.4297  -22.6994   -2.1179 C   0  0  0  0  0  0
  -13.4697  -23.2493   -1.0517 C   0  0  0  0  0  0
  -12.4755  -22.2526   -0.4409 C   0  0  0  0  0  0
  -12.9724  -20.8174   -0.2504 C   0  0  0  0  0  0
  -13.5742  -20.6801    1.0371 O   0  0  0  0  0  0
  -13.9774  -20.3373   -1.2903 C   0  0  0  0  0  0
  -15.0355  -21.3795   -1.6408 C   0  0  0  0  0  0
  -12.3072  -26.8839   -3.9169 C   0  0  0  0  0  0
  -11.6661  -27.8748   -3.2549 N   0  0  0  0  0  0
  -10.7007  -28.5456   -3.9323 C   0  0  0  0  0  0
  -11.7818  -31.2275   -5.9022 C   0  0  0  0  0  0
  -15.1817  -31.3260   -2.5719 C   0  0  0  0  0  0
  -15.5202  -30.4447   -1.5407 C   0  0  0  0  0  0
  -14.7166  -29.8942    0.9409 H   0  0  0  0  0  0
  -15.0033  -28.5263    1.9379 H   0  0  0  0  0  0
   -8.9516  -31.3143   -7.5588 H   0  0  0  0  0  0
   -8.3605  -28.5798   -5.7362 H   0  0  0  0  0  0
  -13.8247  -24.7494   -3.6145 H   0  0  0  0  0  0
  -13.8890  -19.7608    1.1014 H   0  0  0  0  0  0
  1  2  1  0  0  0
  1 40  1  0  0  0
  1 41  1  0  0  0
  2  3  2  0  0  0
  2  4  2  0  0  0
  2  5  1  0  0  0
  5  6  2  0  0  0
  5 39  1  0  0  0
  6  7  1  0  0  0
  7  8  2  0  0  0
  8  9  1  0  0  0
  8 38  1  0  0  0
  9 10  1  0  0  0
 10 11  2  0  0  0
 10 37  1  0  0  0
 11 12  1  0  0  0
 12 13  2  0  0  0
 13 14  1  0  0  0
 14 15  1  0  0  0
 14 37  2  0  0  0
 15 16  1  0  0  0
 15 42  1  0  0  0
 16 17  2  0  0  0
 16 18  1  0  0  0
 18 19  1  0  0  0
 18 43  1  0  0  0
 19 20  2  0  0  0
 19 36  1  0  0  0
 20 21  1  0  0  0
 21 22  1  0  0  0
 21 34  2  0  0  0
 22 23  1  0  0  0
 23 24  1  0  0  0
 24 25  1  0  0  0
 24 44  1  0  0  0
 25 26  2  0  0  0
 25 27  1  0  0  0
 27 28  1  0  0  0
 27 33  1  0  0  0
 28 29  1  0  0  0
 29 30  1  0  0  0
 30 31  1  0  0  0
 30 32  1  0  0  0
 31 45  1  0  0  0
 32 33  1  0  0  0
 34 35  1  0  0  0
 35 36  2  0  0  0
 38 39  2  0  0  0
M  END
>  <AUTHOR>
    GENERATED BY OPEN BABEL 2.3.2

>  <CHROM.1>
82.04606948,-124.16136590,63.16510653,84.99082063,-112.33902382,-150.13361040
-96.88898515,-50.81618336,-120.07671817,-69.44842597,-158.36818575,58.85488546
-178.81362086,-12.92151622,-27.29628597,-3.30216871,2.02196873,0.86468258
0.10135348

>  <COMPND>
    UNNAMED

>  <MASTER>
        0    0    0    0    0    0    0    0   72    0   72    0

>  <Name>
ligands/mol2.pdb

>  <RI>
2.46609e+07

>  <Rbt.Current_Directory>
/home/rodrigo/Desktop/Rodrigo/Proyectos/test_OCONDOR/OCONDOR

>  <Rbt.Executable>
rbdock ($Id: //depot/dev/client3/rdock/2013.1/src/exe/rbdock.cxx#4 $)

>  <Rbt.Library>
libRbt.so (2013.1, Build901 2013/11/27)

>  <Rbt.Parameter_File>
dock.prm

>  <Rbt.Receptor>
rdock.prm

>  <SCORE>
-18.9301

>  <SCORE.INTER>
-13.1978

>  <SCORE.INTER.CONST>
1

>  <SCORE.INTER.POLAR>
-1.6402

>  <SCORE.INTER.REPUL>
0

>  <SCORE.INTER.ROT>
12

>  <SCORE.INTER.VDW>
-25.0211

>  <SCORE.INTER.norm>
-0.338404

>  <SCORE.INTRA>
-5.73236

>  <SCORE.INTRA.DIHEDRAL>
-6.53793

>  <SCORE.INTRA.DIHEDRAL.0>
15.348

>  <SCORE.INTRA.POLAR>
0

>  <SCORE.INTRA.POLAR.0>
0

>  <SCORE.INTRA.REPUL>
0

>  <SCORE.INTRA.REPUL.0>
0

>  <SCORE.INTRA.VDW>
-2.4634

>  <SCORE.INTRA.VDW.0>
-3.74855

>  <SCORE.INTRA.norm>
-0.146984

>  <SCORE.RESTR>
0

>  <SCORE.RESTR.CAVITY>
0

>  <SCORE.RESTR.norm>
0

>  <SCORE.SYSTEM>
0

>  <SCORE.SYSTEM.CONST>
0

>  <SCORE.SYSTEM.DIHEDRAL>
0

>  <SCORE.SYSTEM.norm>
0

>  <SCORE.heavy>
39

>  <SCORE.norm>
-0.485388

$$$$
ligands/mol2.pdb
  rDOCK(R)          3D
libRbt.so/2013.1/901 2013/11/27
 45 48  0  0  0  0  0  0  0  0999 V2000
  -15.3425  -24.3856   -2.0417 N   0  0  0  0  0  0
  -15.7587  -26.0241   -2.0243 S   0  0  0  0  0  0
  -16.9602  -26.1930   -1.2521 O   0  0  0  0  0  0
  -15.6833  -26.4652   -3.4071 O   0  0  0  0  0  0
  -14.4218  -26.7804   -1.1312 C   0  0  0  0  0  0
  -14.5061  -26.9970    0.2481 C   0  0  0  0  0  0
  -13.5042  -27.7316    0.8943 C   0  0  0  0  0  0
  -12.4228  -28.2641    0.1719 C   0  0  0  0  0  0
  -11.4330  -29.2086    0.8525 C   0  0  0  0  0  0
  -11.6133  -30.7041    0.5920 C   0  0  0  0  0  0
  -12.8369  -31.3555    0.8104 C   0  0  0  0  0  0
  -12.9973  -32.7120    0.5283 C   0  0  0  0  0  0
  -11.9476  -33.4391   -0.0209 C   0  0  0  0  0  0
  -10.7112  -32.8304   -0.2330 C   0  0  0  0  0  0
   -9.7087  -33.6066   -0.8563 N   0  0  0  0  0  0
   -8.3836  -33.2260   -0.9592 C   0  0  0  0  0  0
   -7.9667  -32.0778   -0.9270 O   0  0  0  0  0  0
   -7.5874  -34.3523   -1.1062 N   0  0  0  0  0  0
   -7.1667  -34.8603   -2.3497 C   0  0  0  0  0  0
   -7.0007  -33.9628   -3.4063 C   0  0  0  0  0  0
   -6.6233  -34.4199   -4.6742 C   0  0  0  0  0  0
   -6.3513  -33.4650   -5.8091 C   0  0  0  0  0  0
   -7.0642  -33.7927   -7.1314 C   0  0  0  0  0  0
   -8.4323  -33.2908   -7.2209 N   0  0  0  0  0  0
   -8.8377  -32.4938   -8.2753 C   0  0  0  0  0  0
   -8.0606  -32.1465   -9.1646 O   0  0  0  0  0  0
  -10.2906  -31.9770   -8.1927 C   0  0  0  0  0  0
  -11.3379  -33.0951   -8.3088 C   0  0  0  0  0  0
  -11.6984  -33.8377   -7.0152 C   0  0  0  0  0  0
  -11.7117  -33.0081   -5.7288 C   0  0  0  0  0  0
  -13.0119  -32.4552   -5.5225 O   0  0  0  0  0  0
  -10.7049  -31.8651   -5.6857 C   0  0  0  0  0  0
  -10.6133  -31.0849   -6.9940 C   0  0  0  0  0  0
   -6.4460  -35.7924   -4.8239 C   0  0  0  0  0  0
   -6.6075  -36.6929   -3.8269 N   0  0  0  0  0  0
   -6.9556  -36.2086   -2.6081 C   0  0  0  0  0  0
  -10.5382  -31.4711    0.0842 C   0  0  0  0  0  0
  -12.3269  -27.9776   -1.2005 C   0  0  0  0  0  0
  -13.3225  -27.2419   -1.8503 C   0  0  0  0  0  0
  -16.0622  -23.7655   -2.4144 H   0  0  0  0  0  0
  -14.4149  -24.2456   -2.4700 H   0  0  0  0  0  0
   -9.8009  -34.6058   -0.7449 H   0  0  0  0  0  0
   -7.7418  -35.0297   -0.3749 H   0  0  0  0  0  0
   -9.1426  -33.7620   -6.6748 H   0  0  0  0  0  0
  -13.2287  -31.9455   -6.3234 H   0  0  0  0  0  0
  1  2  1  0  0  0
  1 40  1  0  0  0
  1 41  1  0  0  0
  2  3  2  0  0  0
  2  4  2  0  0  0
  2  5  1  0  0  0
  5  6  2  0  0  0
  5 39  1  0  0  0
  6  7  1  0  0  0
  7  8  2  0  0  0
  8  9  1  0  0  0
  8 38  1  0  0  0
  9 10  1  0  0  0
 10 11  2  0  0  0
 10 37  1  0  0  0
 11 12  1  0  0  0
 12 13  2  0  0  0
 13 14  1  0  0  0
 14 15  1  0  0  0
 14 37  2  0  0  0
 15 16  1  0  0  0
 15 42  1  0  0  0
 16 17  2  0  0  0
 16 18  1  0  0  0
 18 19  1  0  0  0
 18 43  1  0  0  0
 19 20  2  0  0  0
 19 36  1  0  0  0
 20 21  1  0  0  0
 21 22  1  0  0  0
 21 34  2  0  0  0
 22 23  1  0  0  0
 23 24  1  0  0  0
 24 25  1  0  0  0
 24 44  1  0  0  0
 25 26  2  0  0  0
 25 27  1  0  0  0
 27 28  1  0  0  0
 27 33  1  0  0  0
 28 29  1  0  0  0
 29 30  1  0  0  0
 30 31  1  0  0  0
 30 32  1  0  0  0
 31 45  1  0  0  0
 32 33  1  0  0  0
 34 35  1  0  0  0
 35 36  2  0  0  0
 38 39  2  0  0  0
M  END
>  <AUTHOR>
    GENERATED BY OPEN BABEL 2.3.2

>  <CHROM.1>
-57.76852255,93.78494121,100.44757120,-53.61464723,-170.03239564,-24.00781669
94.85275154,29.42823539,-130.42900165,84.23620308,125.70346727,-66.55954711
-56.08709759,-10.95666049,-31.24925791,-3.10522491,2.75261066,-0.81769833
1.58386876

>  <COMPND>
    UNNAMED

>  <MASTER>
        0    0    0    0    0    0    0    0   72    0   72    0

>  <Name>
ligands/mol2.pdb

>  <RI>
2.46609e+07

>  <Rbt.Current_Directory>
/home/rodrigo/Desktop/Rodrigo/Proyectos/test_OCONDOR/OCONDOR

>  <Rbt.Executable>
rbdock ($Id: //depot/dev/client3/rdock/2013.1/src/exe/rbdock.cxx#4 $)

>  <Rbt.Library>
libRbt.so (2013.1, Build901 2013/11/27)

>  <Rbt.Parameter_File>
dock.prm

>  <Rbt.Receptor>
rdock.prm

>  <SCORE>
-15.0142

>  <SCORE.INTER>
-12.4428

>  <SCORE.INTER.CONST>
1

>  <SCORE.INTER.POLAR>
-1.82433

>  <SCORE.INTER.REPUL>
0.0336692

>  <SCORE.INTER.ROT>
12

>  <SCORE.INTER.VDW>
-23.8085

>  <SCORE.INTER.norm>
-0.319047

>  <SCORE.INTRA>
-2.57137

>  <SCORE.INTRA.DIHEDRAL>
-5.63845

>  <SCORE.INTRA.DIHEDRAL.0>
15.348

>  <SCORE.INTRA.POLAR>
0

>  <SCORE.INTRA.POLAR.0>
0

>  <SCORE.INTRA.REPUL>
0

>  <SCORE.INTRA.REPUL.0>
0

>  <SCORE.INTRA.VDW>
0.247857

>  <SCORE.INTRA.VDW.0>
-3.74855

>  <SCORE.INTRA.norm>
-0.0659326

>  <SCORE.RESTR>
0

>  <SCORE.RESTR.CAVITY>
0

>  <SCORE.RESTR.norm>
0

>  <SCORE.SYSTEM>
0

>  <SCORE.SYSTEM.CONST>
0

>  <SCORE.SYSTEM.DIHEDRAL>
0

>  <SCORE.SYSTEM.norm>
0

>  <SCORE.heavy>
39

>  <SCORE.norm>
-0.38498

$$$$
ligands/mol2.pdb
  rDOCK(R)          3D
libRbt.so/2013.1/901 2013/11/27
 45 48  0  0  0  0  0  0  0  0999 V2000
   -5.2742  -31.3752   -1.9010 N   0  0  0  0  0  0
   -5.9204  -32.6106   -0.9448 S   0  0  0  0  0  0
   -5.2284  -33.8374   -1.2358 O   0  0  0  0  0  0
   -5.9734  -32.0774    0.4063 O   0  0  0  0  0  0
   -7.5868  -32.7661   -1.5413 C   0  0  0  0  0  0
   -8.6797  -32.5470   -0.6963 C   0  0  0  0  0  0
   -9.9734  -32.5262   -1.2319 C   0  0  0  0  0  0
  -10.1854  -32.7101   -2.6089 C   0  0  0  0  0  0
  -11.5774  -32.5111   -3.2067 C   0  0  0  0  0  0
  -12.3128  -31.2240   -2.8332 C   0  0  0  0  0  0
  -12.5365  -30.1976   -3.7636 C   0  0  0  0  0  0
  -13.2457  -29.0472   -3.4186 C   0  0  0  0  0  0
  -13.7859  -28.9167   -2.1444 C   0  0  0  0  0  0
  -13.5670  -29.9069   -1.1875 C   0  0  0  0  0  0
  -14.2002  -29.7446    0.0649 N   0  0  0  0  0  0
  -15.0029  -28.6686    0.3957 C   0  0  0  0  0  0
  -16.1022  -28.4261   -0.0797 O   0  0  0  0  0  0
  -14.3695  -27.8957    1.3576 N   0  0  0  0  0  0
  -13.0206  -27.5001    1.2848 C   0  0  0  0  0  0
  -12.5257  -27.0694    0.0523 C   0  0  0  0  0  0
  -11.1818  -26.7034   -0.0851 C   0  0  0  0  0  0
  -10.6422  -26.1513   -1.3804 C   0  0  0  0  0  0
  -10.7459  -24.6257   -1.5406 C   0  0  0  0  0  0
  -11.7332  -23.9925   -0.6712 N   0  0  0  0  0  0
  -13.0886  -24.1883   -0.8610 C   0  0  0  0  0  0
  -13.5234  -24.8753   -1.7853 O   0  0  0  0  0  0
  -14.0108  -23.3925    0.0882 C   0  0  0  0  0  0
  -14.3585  -21.9921   -0.4396 C   0  0  0  0  0  0
  -15.5432  -21.8970   -1.4103 C   0  0  0  0  0  0
  -16.7128  -22.8526   -1.1613 C   0  0  0  0  0  0
  -17.6582  -22.2423   -0.2824 O   0  0  0  0  0  0
  -16.3295  -24.2040   -0.5707 C   0  0  0  0  0  0
  -15.2839  -24.1099    0.5368 C   0  0  0  0  0  0
  -10.3792  -26.8101    1.0472 C   0  0  0  0  0  0
  -10.8203  -27.2327    2.2546 N   0  0  0  0  0  0
  -12.1334  -27.5606    2.3518 C   0  0  0  0  0  0
  -12.8218  -31.0513   -1.5244 C   0  0  0  0  0  0
   -9.0777  -32.9933   -3.4261 C   0  0  0  0  0  0
   -7.7841  -33.0185   -2.8963 C   0  0  0  0  0  0
   -5.7271  -30.4674   -1.7902 H   0  0  0  0  0  0
   -5.1885  -31.6764   -2.8835 H   0  0  0  0  0  0
  -14.5202  -30.5958    0.5035 H   0  0  0  0  0  0
  -14.7404  -28.0535    2.2823 H   0  0  0  0  0  0
  -11.4187  -23.6556    0.2301 H   0  0  0  0  0  0
  -17.1906  -22.0701    0.5543 H   0  0  0  0  0  0
  1  2  1  0  0  0
  1 40  1  0  0  0
  1 41  1  0  0  0
  2  3  2  0  0  0
  2  4  2  0  0  0
  2  5  1  0  0  0
  5  6  2  0  0  0
  5 39  1  0  0  0
  6  7  1  0  0  0
  7  8  2  0  0  0
  8  9  1  0  0  0
  8 38  1  0  0  0
  9 10  1  0  0  0
 10 11  2  0  0  0
 10 37  1  0  0  0
 11 12  1  0  0  0
 12 13  2  0  0  0
 13 14  1  0  0  0
 14 15  1  0  0  0
 14 37  2  0  0  0
 15 16  1  0  0  0
 15 42  1  0  0  0
 16 17  2  0  0  0
 16 18  1  0  0  0
 18 19  1  0  0  0
 18 43  1  0  0  0
 19 20  2  0  0  0
 19 36  1  0  0  0
 20 21  1  0  0  0
 21 22  1  0  0  0
 21 34  2  0  0  0
 22 23  1  0  0  0
 23 24  1  0  0  0
 24 25  1  0  0  0
 24 44  1  0  0  0
 25 26  2  0  0  0
 25 27  1  0  0  0
 27 28  1  0  0  0
 27 33  1  0  0  0
 28 29  1  0  0  0
 29 30  1  0  0  0
 30 31  1  0  0  0
 30 32  1  0  0  0
 31 45  1  0  0  0
 32 33  1  0  0  0
 34 35  1  0  0  0
 35 36  2  0  0  0
 38 39  2  0  0  0
M  END
>  <AUTHOR>
    GENERATED BY OPEN BABEL 2.3.2

>  <CHROM.1>
177.81519125,-119.15381528,49.05163768,110.11118064,-0.63677988,68.44911036
46.63667386,42.19087735,88.54601391,-20.14163903,-69.27065704,88.02791189
-61.16613755,-11.71565484,-28.33265091,-0.87548488,-0.83849379,-0.16892612
0.28649322

>  <COMPND>
    UNNAMED

>  <MASTER>
        0    0    0    0    0    0    0    0   72    0   72    0

>  <Name>
ligands/mol2.pdb

>  <RI>
2.46609e+07

>  <Rbt.Current_Directory>
/home/rodrigo/Desktop/Rodrigo/Proyectos/test_OCONDOR/OCONDOR

>  <Rbt.Executable>
rbdock ($Id: //depot/dev/client3/rdock/2013.1/src/exe/rbdock.cxx#4 $)

>  <Rbt.Library>
libRbt.so (2013.1, Build901 2013/11/27)

>  <Rbt.Parameter_File>
dock.prm

>  <Rbt.Receptor>
rdock.prm

>  <SCORE>
-14.9763

>  <SCORE.INTER>
-11.5261

>  <SCORE.INTER.CONST>
1

>  <SCORE.INTER.POLAR>
-2.63729

>  <SCORE.INTER.REPUL>
0.0180457

>  <SCORE.INTER.ROT>
12

>  <SCORE.INTER.VDW>
-20.0495

>  <SCORE.INTER.norm>
-0.295541

>  <SCORE.INTRA>
-3.45019

>  <SCORE.INTRA.DIHEDRAL>
-2.35036

>  <SCORE.INTRA.DIHEDRAL.0>
15.348

>  <SCORE.INTRA.POLAR>
0

>  <SCORE.INTRA.POLAR.0>
0

>  <SCORE.INTRA.REPUL>
0

>  <SCORE.INTRA.REPUL.0>
0

>  <SCORE.INTRA.VDW>
-2.27501

>  <SCORE.INTRA.VDW.0>
-3.74855

>  <SCORE.INTRA.norm>
-0.0884664

>  <SCORE.RESTR>
0

>  <SCORE.RESTR.CAVITY>
0

>  <SCORE.RESTR.norm>
0

>  <SCORE.SYSTEM>
0

>  <SCORE.SYSTEM.CONST>
0

>  <SCORE.SYSTEM.DIHEDRAL>
0

>  <SCORE.SYSTEM.norm>
0

>  <SCORE.heavy>
39

>  <SCORE.norm>
-0.384007

$$$$
ligands/mol2.pdb
  rDOCK(R)          3D
libRbt.so/2013.1/901 2013/11/27
 45 48  0  0  0  0  0  0  0  0999 V2000
  -11.5049  -34.0605   -9.5065 N   0  0  0  0  0  0
  -10.3287  -33.0111   -8.8953 S   0  0  0  0  0  0
   -9.0570  -33.6829   -8.8962 O   0  0  0  0  0  0
  -10.5172  -31.7537   -9.5993 O   0  0  0  0  0  0
  -10.8232  -32.7756   -7.2051 C   0  0  0  0  0  0
  -10.7519  -33.8217   -6.2794 C   0  0  0  0  0  0
  -11.0018  -33.5642   -4.9257 C   0  0  0  0  0  0
  -11.3106  -32.2660   -4.4851 C   0  0  0  0  0  0
  -11.4075  -31.9631   -2.9905 C   0  0  0  0  0  0
  -12.7001  -31.3113   -2.4995 C   0  0  0  0  0  0
  -13.8786  -31.3287   -3.2612 C   0  0  0  0  0  0
  -15.0612  -30.7660   -2.7814 C   0  0  0  0  0  0
  -15.1028  -30.2106   -1.5078 C   0  0  0  0  0  0
  -13.9467  -30.1574   -0.7302 C   0  0  0  0  0  0
  -14.0733  -29.6423    0.5792 N   0  0  0  0  0  0
  -14.1356  -28.2944    0.8808 C   0  0  0  0  0  0
  -15.1586  -27.6481    1.0511 O   0  0  0  0  0  0
  -12.8511  -27.7774    0.9625 N   0  0  0  0  0  0
  -12.2285  -27.0527   -0.0713 C   0  0  0  0  0  0
  -12.6834  -27.2447   -1.3773 C   0  0  0  0  0  0
  -12.0730  -26.5801   -2.4471 C   0  0  0  0  0  0
  -12.5994  -26.7003   -3.8551 C   0  0  0  0  0  0
  -14.1279  -26.6125   -3.9969 C   0  0  0  0  0  0
  -14.7581  -25.6136   -3.1386 N   0  0  0  0  0  0
  -14.3930  -24.2814   -3.1988 C   0  0  0  0  0  0
  -13.5033  -23.8840   -3.9509 O   0  0  0  0  0  0
  -15.0917  -23.3579   -2.1772 C   0  0  0  0  0  0
  -14.7981  -23.7385   -0.7179 C   0  0  0  0  0  0
  -13.5094  -23.1740   -0.1052 C   0  0  0  0  0  0
  -13.0963  -21.7688   -0.5503 C   0  0  0  0  0  0
  -13.6818  -20.7952    0.3145 O   0  0  0  0  0  0
  -13.4705  -21.4078   -1.9826 C   0  0  0  0  0  0
  -14.8742  -21.8580   -2.3770 C   0  0  0  0  0  0
  -10.9972  -25.7503   -2.1442 C   0  0  0  0  0  0
  -10.5222  -25.5476   -0.8935 N   0  0  0  0  0  0
  -11.1524  -26.1952    0.1186 C   0  0  0  0  0  0
  -12.7451  -30.6931   -1.2276 C   0  0  0  0  0  0
  -11.4403  -31.2458   -5.4428 C   0  0  0  0  0  0
  -11.1951  -31.4977   -6.7959 C   0  0  0  0  0  0
  -12.4407  -33.6596   -9.5765 H   0  0  0  0  0  0
  -11.4799  -34.9674   -9.0163 H   0  0  0  0  0  0
  -14.6409  -30.1906    1.2088 H   0  0  0  0  0  0
  -12.2467  -28.3405    1.5414 H   0  0  0  0  0  0
  -15.6492  -25.8484   -2.7198 H   0  0  0  0  0  0
  -13.3174  -20.9560    1.2031 H   0  0  0  0  0  0
  1  2  1  0  0  0
  1 40  1  0  0  0
  1 41  1  0  0  0
  2  3  2  0  0  0
  2  4  2  0  0  0
  2  5  1  0  0  0
  5  6  2  0  0  0
  5 39  1  0  0  0
  6  7  1  0  0  0
  7  8  2  0  0  0
  8  9  1  0  0  0
  8 38  1  0  0  0
  9 10  1  0  0  0
 10 11  2  0  0  0
 10 37  1  0  0  0
 11 12  1  0  0  0
 12 13  2  0  0  0
 13 14  1  0  0  0
 14 15  1  0  0  0
 14 37  2  0  0  0
 15 16  1  0  0  0
 15 42  1  0  0  0
 16 17  2  0  0  0
 16 18  1  0  0  0
 18 19  1  0  0  0
 18 43  1  0  0  0
 19 20  2  0  0  0
 19 36  1  0  0  0
 20 21  1  0  0  0
 21 22  1  0  0  0
 21 34  2  0  0  0
 22 23  1  0  0  0
 23 24  1  0  0  0
 24 25  1  0  0  0
 24 44  1  0  0  0
 25 26  2  0  0  0
 25 27  1  0  0  0
 27 28  1  0  0  0
 27 33  1  0  0  0
 28 29  1  0  0  0
 29 30  1  0  0  0
 30 31  1  0  0  0
 30 32  1  0  0  0
 31 45  1  0  0  0
 32 33  1  0  0  0
 34 35  1  0  0  0
 35 36  2  0  0  0
 38 39  2  0  0  0
M  END
>  <AUTHOR>
    GENERATED BY OPEN BABEL 2.3.2

>  <CHROM.1>
-177.91391664,68.18718613,-125.97358861,17.74326950,-79.43686778,95.90866770
99.94343136,-23.33799796,43.28075129,39.98974488,57.43711905,61.37298748
62.71184607,-12.65679359,-28.28903618,-3.20736424,-0.64949463,1.25508818
-0.27395914

>  <COMPND>
    UNNAMED

>  <MASTER>
        0    0    0    0    0    0    0    0   72    0   72    0

>  <Name>
ligands/mol2.pdb

>  <RI>
2.46609e+07

>  <Rbt.Current_Directory>
/home/rodrigo/Desktop/Rodrigo/Proyectos/test_OCONDOR/OCONDOR

>  <Rbt.Executable>
rbdock ($Id: //depot/dev/client3/rdock/2013.1/src/exe/rbdock.cxx#4 $)

>  <Rbt.Library>
libRbt.so (2013.1, Build901 2013/11/27)

>  <Rbt.Parameter_File>
dock.prm

>  <Rbt.Receptor>
rdock.prm

>  <SCORE>
-17.0429

>  <SCORE.INTER>
-10.552

>  <SCORE.INTER.CONST>
1

>  <SCORE.INTER.POLAR>
-1.51553

>  <SCORE.INTER.REPUL>
0.00448291

>  <SCORE.INTER.ROT>
12

>  <SCORE.INTER.VDW>
-22.8216

>  <SCORE.INTER.norm>
-0.270564

>  <SCORE.INTRA>
-6.5194

>  <SCORE.INTRA.DIHEDRAL>
-6.73148

>  <SCORE.INTRA.DIHEDRAL.0>
15.348

>  <SCORE.INTRA.POLAR>
0

>  <SCORE.INTRA.POLAR.0>
0

>  <SCORE.INTRA.REPUL>
0

>  <SCORE.INTRA.REPUL.0>
0

>  <SCORE.INTRA.VDW>
-3.15365

>  <SCORE.INTRA.VDW.0>
-3.74855

>  <SCORE.INTRA.norm>
-0.167164

>  <SCORE.RESTR>
0.0284523

>  <SCORE.RESTR.CAVITY>
0.0284523

>  <SCORE.RESTR.norm>
0.000729547

>  <SCORE.SYSTEM>
0

>  <SCORE.SYSTEM.CONST>
0

>  <SCORE.SYSTEM.DIHEDRAL>
0

>  <SCORE.SYSTEM.norm>
0

>  <SCORE.heavy>
39

>  <SCORE.norm>
-0.436999

$$$$
ligands/mol2.pdb
  rDOCK(R)          3D
libRbt.so/2013.1/901 2013/11/27
 45 48  0  0  0  0  0  0  0  0999 V2000
  -13.5743  -18.8266   -1.7114 N   0  0  0  0  0  0
  -13.4652  -19.8876   -3.0231 S   0  0  0  0  0  0
  -14.2076  -19.3428   -4.1279 O   0  0  0  0  0  0
  -12.0546  -20.2138   -3.1507 O   0  0  0  0  0  0
  -14.3168  -21.3388   -2.4525 C   0  0  0  0  0  0
  -15.4541  -21.2379   -1.6445 C   0  0  0  0  0  0
  -16.1892  -22.3902   -1.3398 C   0  0  0  0  0  0
  -15.8055  -23.6436   -1.8463 C   0  0  0  0  0  0
  -16.7091  -24.8608   -1.6544 C   0  0  0  0  0  0
  -16.1362  -26.0273   -0.8496 C   0  0  0  0  0  0
  -15.8646  -25.9224    0.5231 C   0  0  0  0  0  0
  -15.3812  -27.0086    1.2524 C   0  0  0  0  0  0
  -15.1994  -28.2394    0.6325 C   0  0  0  0  0  0
  -15.4395  -28.3762   -0.7341 C   0  0  0  0  0  0
  -15.3006  -29.6688   -1.2871 N   0  0  0  0  0  0
  -14.1763  -30.4597   -1.1400 C   0  0  0  0  0  0
  -14.1723  -31.6710   -0.9787 O   0  0  0  0  0  0
  -13.0398  -29.6669   -1.2028 N   0  0  0  0  0  0
  -11.8876  -30.0020   -1.9386 C   0  0  0  0  0  0
  -11.1311  -31.0969   -1.5162 C   0  0  0  0  0  0
   -9.9545  -31.4489   -2.1874 C   0  0  0  0  0  0
   -9.1664  -32.6773   -1.8080 C   0  0  0  0  0  0
   -9.0106  -33.7294   -2.9184 C   0  0  0  0  0  0
   -8.2173  -34.8950   -2.5395 N   0  0  0  0  0  0
   -6.8422  -34.9054   -2.6822 C   0  0  0  0  0  0
   -6.2307  -33.9509   -3.1619 O   0  0  0  0  0  0
   -6.1493  -36.2350   -2.3120 C   0  0  0  0  0  0
   -6.7159  -37.4443   -3.0716 C   0  0  0  0  0  0
   -6.1349  -37.7154   -4.4658 C   0  0  0  0  0  0
   -4.6473  -37.4113   -4.6601 C   0  0  0  0  0  0
   -3.8714  -38.5677   -4.3450 O   0  0  0  0  0  0
   -4.1113  -36.2487   -3.8336 C   0  0  0  0  0  0
   -4.6229  -36.2369   -2.3960 C   0  0  0  0  0  0
   -9.5786  -30.6509   -3.2641 C   0  0  0  0  0  0
  -10.2798  -29.5771   -3.6957 N   0  0  0  0  0  0
  -11.4244  -29.2795   -3.0306 C   0  0  0  0  0  0
  -15.8934  -27.2718   -1.4775 C   0  0  0  0  0  0
  -14.6232  -23.7286   -2.6013 C   0  0  0  0  0  0
  -13.8835  -22.5820   -2.9059 C   0  0  0  0  0  0
  -13.1667  -19.1761   -0.8436 H   0  0  0  0  0  0
  -14.5370  -18.4735   -1.6023 H   0  0  0  0  0  0
  -16.1441  -30.2230   -1.3134 H   0  0  0  0  0  0
  -12.8924  -29.1395   -0.3556 H   0  0  0  0  0  0
   -8.6396  -35.5672   -1.9114 H   0  0  0  0  0  0
   -4.1399  -39.2631   -4.9716 H   0  0  0  0  0  0
  1  2  1  0  0  0
  1 40  1  0  0  0
  1 41  1  0  0  0
  2  3  2  0  0  0
  2  4  2  0  0  0
  2  5  1  0  0  0
  5  6  2  0  0  0
  5 39  1  0  0  0
  6  7  1  0  0  0
  7  8  2  0  0  0
  8  9  1  0  0  0
  8 38  1  0  0  0
  9 10  1  0  0  0
 10 11  2  0  0  0
 10 37  1  0  0  0
 11 12  1  0  0  0
 12 13  2  0  0  0
 13 14  1  0  0  0
 14 15  1  0  0  0
 14 37  2  0  0  0
 15 16  1  0  0  0
 15 42  1  0  0  0
 16 17  2  0  0  0
 16 18  1  0  0  0
 18 19  1  0  0  0
 18 43  1  0  0  0
 19 20  2  0  0  0
 19 36  1  0  0  0
 20 21  1  0  0  0
 21 22  1  0  0  0
 21 34  2  0  0  0
 22 23  1  0  0  0
 23 24  1  0  0  0
 24 25  1  0  0  0
 24 44  1  0  0  0
 25 26  2  0  0  0
 25 27  1  0  0  0
 27 28  1  0  0  0
 27 33  1  0  0  0
 28 29  1  0  0  0
 29 30  1  0  0  0
 30 31  1  0  0  0
 30 32  1  0  0  0
 31 45  1  0  0  0
 32 33  1  0  0  0
 34 35  1  0  0  0
 35 36  2  0  0  0
 38 39  2  0  0  0
M  END
>  <AUTHOR>
    GENERATED BY OPEN BABEL 2.3.2

>  <CHROM.1>
173.39081257,36.91187998,-118.31301157,67.34865166,-52.83479509,141.77576913
-135.69482549,-67.36001843,119.50852270,178.59470171,-87.44402556,54.84305680
61.84114735,-11.52527142,-28.82786693,-2.25870069,-2.17543823,-0.42737086
2.95123098

>  <COMPND>
    UNNAMED

>  <MASTER>
        0    0    0    0    0    0    0    0   72    0   72    0

>  <Name>
ligands/mol2.pdb

>  <RI>
2.46609e+07

>  <Rbt.Current_Directory>
/home/rodrigo/Desktop/Rodrigo/Proyectos/test_OCONDOR/OCONDOR

>  <Rbt.Executable>
rbdock ($Id: //depot/dev/client3/rdock/2013.1/src/exe/rbdock.cxx#4 $)

>  <Rbt.Library>
libRbt.so (2013.1, Build901 2013/11/27)

>  <Rbt.Parameter_File>
dock.prm

>  <Rbt.Receptor>
rdock.prm

>  <SCORE>
-13.6703

>  <SCORE.INTER>
-8.75314

>  <SCORE.INTER.CONST>
1

>  <SCORE.INTER.POLAR>
-0.905152

>  <SCORE.INTER.REPUL>
0

>  <SCORE.INTER.ROT>
12

>  <SCORE.INTER.VDW>
-23.0756

>  <SCORE.INTER.norm>
-0.22444

>  <SCORE.INTRA>
-4.91714

>  <SCORE.INTRA.DIHEDRAL>
-8.57305

>  <SCORE.INTRA.DIHEDRAL.0>
15.348

>  <SCORE.INTRA.POLAR>
0

>  <SCORE.INTRA.POLAR.0>
0

>  <SCORE.INTRA.REPUL>
0

>  <SCORE.INTRA.REPUL.0>
0

>  <SCORE.INTRA.VDW>
-0.630616

>  <SCORE.INTRA.VDW.0>
-3.74855

>  <SCORE.INTRA.norm>
-0.126081

>  <SCORE.RESTR>
0

>  <SCORE.RESTR.CAVITY>
0

>  <SCORE.RESTR.norm>
0

>  <SCORE.SYSTEM>
0

>  <SCORE.SYSTEM.CONST>
0

>  <SCORE.SYSTEM.DIHEDRAL>
0

>  <SCORE.SYSTEM.norm>
0

>  <SCORE.heavy>
39

>  <SCORE.norm>
-0.35052

$$$$
ligands/mol2.pdb
  rDOCK(R)          3D
libRbt.so/2013.1/901 2013/11/27
 45 48  0  0  0  0  0  0  0  0999 V2000
   -6.8981  -35.6279    0.1729 N   0  0  0  0  0  0
   -5.9600  -34.5499   -0.7306 S   0  0  0  0  0  0
   -6.1586  -33.2188   -0.2232 O   0  0  0  0  0  0
   -4.6339  -35.1408   -0.7974 O   0  0  0  0  0  0
   -6.6822  -34.6323   -2.3518 C   0  0  0  0  0  0
   -8.0688  -34.5797   -2.5282 C   0  0  0  0  0  0
   -8.5975  -34.4920   -3.8220 C   0  0  0  0  0  0
   -7.7518  -34.4435   -4.9433 C   0  0  0  0  0  0
   -8.3292  -34.1713   -6.3316 C   0  0  0  0  0  0
   -9.6277  -33.3671   -6.3950 C   0  0  0  0  0  0
  -10.8868  -33.9864   -6.4142 C   0  0  0  0  0  0
  -12.0636  -33.2379   -6.4299 C   0  0  0  0  0  0
  -12.0079  -31.8498   -6.3827 C   0  0  0  0  0  0
  -10.7747  -31.1991   -6.3832 C   0  0  0  0  0  0
  -10.7882  -29.7913   -6.2657 N   0  0  0  0  0  0
  -10.6661  -29.1108   -5.0684 C   0  0  0  0  0  0
  -10.0891  -29.5190   -4.0715 O   0  0  0  0  0  0
  -11.3023  -27.8821   -5.1661 N   0  0  0  0  0  0
  -12.4647  -27.5400   -4.4496 C   0  0  0  0  0  0
  -12.5350  -26.2692   -3.8757 C   0  0  0  0  0  0
  -13.6504  -25.8921   -3.1189 C   0  0  0  0  0  0
  -13.7922  -24.4977   -2.5624 C   0  0  0  0  0  0
  -12.4987  -23.8716   -2.0157 C   0  0  0  0  0  0
  -12.6115  -22.4579   -1.6685 N   0  0  0  0  0  0
  -12.7406  -21.4866   -2.6438 C   0  0  0  0  0  0
  -12.7343  -21.7640   -3.8431 O   0  0  0  0  0  0
  -12.7713  -20.0315   -2.1275 C   0  0  0  0  0  0
  -13.9569  -19.7461   -1.1929 C   0  0  0  0  0  0
  -13.7660  -20.0981    0.2885 C   0  0  0  0  0  0
  -12.3638  -19.8929    0.8672 C   0  0  0  0  0  0
  -12.2430  -18.5681    1.3858 O   0  0  0  0  0  0
  -11.2197  -20.1174   -0.1139 C   0  0  0  0  0  0
  -11.4764  -19.5214   -1.4950 C   0  0  0  0  0  0
  -14.6548  -26.8422   -2.9576 C   0  0  0  0  0  0
  -14.6173  -28.0858   -3.4896 N   0  0  0  0  0  0
  -13.5279  -28.4069   -4.2321 C   0  0  0  0  0  0
   -9.5873  -31.9528   -6.4030 C   0  0  0  0  0  0
   -6.3659  -34.5636   -4.7439 C   0  0  0  0  0  0
   -5.8327  -34.6547   -3.4547 C   0  0  0  0  0  0
   -7.8760  -35.3568    0.2812 H   0  0  0  0  0  0
   -6.4340  -35.8633    1.0632 H   0  0  0  0  0  0
  -10.3541  -29.2877   -7.0254 H   0  0  0  0  0  0
  -11.2031  -27.4701   -6.0814 H   0  0  0  0  0  0
  -12.8854  -22.2268   -0.7218 H   0  0  0  0  0  0
  -11.3659  -18.5114    1.8050 H   0  0  0  0  0  0
  1  2  1  0  0  0
  1 40  1  0  0  0
  1 41  1  0  0  0
  2  3  2  0  0  0
  2  4  2  0  0  0
  2  5  1  0  0  0
  5  6  2  0  0  0
  5 39  1  0  0  0
  6  7  1  0  0  0
  7  8  2  0  0  0
  8  9  1  0  0  0
  8 38  1  0  0  0
  9 10  1  0  0  0
 10 11  2  0  0  0
 10 37  1  0  0  0
 11 12  1  0  0  0
 12 13  2  0  0  0
 13 14  1  0  0  0
 14 15  1  0  0  0
 14 37  2  0  0  0
 15 16  1  0  0  0
 15 42  1  0  0  0
 16 17  2  0  0  0
 16 18  1  0  0  0
 18 19  1  0  0  0
 18 43  1  0  0  0
 19 20  2  0  0  0
 19 36  1  0  0  0
 20 21  1  0  0  0
 21 22  1  0  0  0
 21 34  2  0  0  0
 22 23  1  0  0  0
 23 24  1  0  0  0
 24 25  1  0  0  0
 24 44  1  0  0  0
 25 26  2  0  0  0
 25 27  1  0  0  0
 27 28  1  0  0  0
 27 33  1  0  0  0
 28 29  1  0  0  0
 29 30  1  0  0  0
 30 31  1  0  0  0
 30 32  1  0  0  0
 31 45  1  0  0  0
 32 33  1  0  0  0
 34 35  1  0  0  0
 35 36  2  0  0  0
 38 39  2  0  0  0
M  END
>  <AUTHOR>
    GENERATED BY OPEN BABEL 2.3.2

>  <CHROM.1>
50.01734913,45.99420534,26.78957002,-92.49421468,93.98284341,27.21374199
112.61661674,137.22400399,-39.62298154,171.25421597,-70.59579793,-61.61119736
175.46248732,-10.49907866,-28.49295121,-3.04786625,-1.00467141,-0.80704712
0.58410550

>  <COMPND>
    UNNAMED

>  <MASTER>
        0    0    0    0    0    0    0    0   72    0   72    0

>  <Name>
ligands/mol2.pdb

>  <RI>
2.46609e+07

>  <Rbt.Current_Directory>
/home/rodrigo/Desktop/Rodrigo/Proyectos/test_OCONDOR/OCONDOR

>  <Rbt.Executable>
rbdock ($Id: //depot/dev/client3/rdock/2013.1/src/exe/rbdock.cxx#4 $)

>  <Rbt.Library>
libRbt.so (2013.1, Build901 2013/11/27)

>  <Rbt.Parameter_File>
dock.prm

>  <Rbt.Receptor>
rdock.prm

>  <SCORE>
-11.0749

>  <SCORE.INTER>
-6.75682

>  <SCORE.INTER.CONST>
1

>  <SCORE.INTER.POLAR>
-1.39576

>  <SCORE.INTER.REPUL>
0.0395077

>  <SCORE.INTER.ROT>
12

>  <SCORE.INTER.VDW>
-19.6088

>  <SCORE.INTER.norm>
-0.173252

>  <SCORE.INTRA>
-4.31807

>  <SCORE.INTRA.DIHEDRAL>
-8.02327

>  <SCORE.INTRA.DIHEDRAL.0>
15.348

>  <SCORE.INTRA.POLAR>
0

>  <SCORE.INTRA.POLAR.0>
0

>  <SCORE.INTRA.REPUL>
0

>  <SCORE.INTRA.REPUL.0>
0

>  <SCORE.INTRA.VDW>
-0.306432

>  <SCORE.INTRA.VDW.0>
-3.74855

>  <SCORE.INTRA.norm>
-0.11072

>  <SCORE.RESTR>
0

>  <SCORE.RESTR.CAVITY>
0

>  <SCORE.RESTR.norm>
0

>  <SCORE.SYSTEM>
0

>  <SCORE.SYSTEM.CONST>
0

>  <SCORE.SYSTEM.DIHEDRAL>
0

>  <SCORE.SYSTEM.norm>
0

>  <SCORE.heavy>
39

>  <SCORE.norm>
-0.283971

$$$$
ligands/mol2.pdb
  rDOCK(R)          3D
libRbt.so/2013.1/901 2013/11/27
 45 48  0  0  0  0  0  0  0  0999 V2000
  -12.6183  -18.1279   -3.7789 N   0  0  0  0  0  0
  -13.5630  -17.9879   -2.3838 S   0  0  0  0  0  0
  -13.0436  -16.9194   -1.5731 O   0  0  0  0  0  0
  -14.9429  -17.9854   -2.8400 O   0  0  0  0  0  0
  -13.2678  -19.5176   -1.5298 C   0  0  0  0  0  0
  -13.9151  -19.8082   -0.3243 C   0  0  0  0  0  0
  -13.7795  -21.0814    0.2429 C   0  0  0  0  0  0
  -13.0121  -22.0736   -0.3907 C   0  0  0  0  0  0
  -13.0141  -23.5057    0.1422 C   0  0  0  0  0  0
  -14.0487  -24.4625   -0.4503 C   0  0  0  0  0  0
  -15.3799  -24.0766   -0.6694 C   0  0  0  0  0  0
  -16.3019  -24.9477   -1.2496 C   0  0  0  0  0  0
  -15.9011  -26.2124   -1.6643 C   0  0  0  0  0  0
  -14.5916  -26.6378   -1.4446 C   0  0  0  0  0  0
  -14.2322  -27.9068   -1.9510 N   0  0  0  0  0  0
  -13.2268  -28.6966   -1.4249 C   0  0  0  0  0  0
  -13.3761  -29.5860   -0.6003 O   0  0  0  0  0  0
  -12.0093  -28.3267   -1.9769 N   0  0  0  0  0  0
  -11.5945  -28.6815   -3.2744 C   0  0  0  0  0  0
  -12.0536  -29.8881   -3.8062 C   0  0  0  0  0  0
  -11.6398  -30.3082   -5.0756 C   0  0  0  0  0  0
  -12.1881  -31.5615   -5.7101 C   0  0  0  0  0  0
  -12.1475  -32.8194   -4.8269 C   0  0  0  0  0  0
  -10.8632  -33.0590   -4.1751 N   0  0  0  0  0  0
   -9.8635  -33.7807   -4.8005 C   0  0  0  0  0  0
  -10.0208  -34.2785   -5.9153 O   0  0  0  0  0  0
   -8.5920  -34.0168   -3.9567 C   0  0  0  0  0  0
   -7.7996  -32.7292   -3.6834 C   0  0  0  0  0  0
   -8.2472  -31.8877   -2.4808 C   0  0  0  0  0  0
   -8.7633  -32.6546   -1.2607 C   0  0  0  0  0  0
   -7.6789  -32.9501   -0.3801 O   0  0  0  0  0  0
   -9.4809  -33.9618   -1.5743 C   0  0  0  0  0  0
   -8.7912  -34.7911   -2.6538 C   0  0  0  0  0  0
  -10.7482  -29.4826   -5.7546 C   0  0  0  0  0  0
  -10.2740  -28.3126   -5.2677 N   0  0  0  0  0  0
  -10.7131  -27.9310   -4.0419 C   0  0  0  0  0  0
  -13.6703  -25.7726   -0.8276 C   0  0  0  0  0  0
  -12.3193  -21.7371   -1.5662 C   0  0  0  0  0  0
  -12.4483  -20.4665   -2.1352 C   0  0  0  0  0  0
  -12.4628  -17.2524   -4.2797 H   0  0  0  0  0  0
  -12.9609  -18.8923   -4.3805 H   0  0  0  0  0  0
  -14.9948  -28.4643   -2.3072 H   0  0  0  0  0  0
  -11.2828  -28.2416   -1.2823 H   0  0  0  0  0  0
  -10.6085  -32.4566   -3.4025 H   0  0  0  0  0  0
   -7.3511  -32.0966   -0.0449 H   0  0  0  0  0  0
  1  2  1  0  0  0
  1 40  1  0  0  0
  1 41  1  0  0  0
  2  3  2  0  0  0
  2  4  2  0  0  0
  2  5  1  0  0  0
  5  6  2  0  0  0
  5 39  1  0  0  0
  6  7  1  0  0  0
  7  8  2  0  0  0
  8  9  1  0  0  0
  8 38  1  0  0  0
  9 10  1  0  0  0
 10 11  2  0  0  0
 10 37  1  0  0  0
 11 12  1  0  0  0
 12 13  2  0  0  0
 13 14  1  0  0  0
 14 15  1  0  0  0
 14 37  2  0  0  0
 15 16  1  0  0  0
 15 42  1  0  0  0
 16 17  2  0  0  0
 16 18  1  0  0  0
 18 19  1  0  0  0
 18 43  1  0  0  0
 19 20  2  0  0  0
 19 36  1  0  0  0
 20 21  1  0  0  0
 21 22  1  0  0  0
 21 34  2  0  0  0
 22 23  1  0  0  0
 23 24  1  0  0  0
 24 25  1  0  0  0
 24 44  1  0  0  0
 25 26  2  0  0  0
 25 27  1  0  0  0
 27 28  1  0  0  0
 27 33  1  0  0  0
 28 29  1  0  0  0
 29 30  1  0  0  0
 30 31  1  0  0  0
 30 32  1  0  0  0
 31 45  1  0  0  0
 32 33  1  0  0  0
 34 35  1  0  0  0
 35 36  2  0  0  0
 38 39  2  0  0  0
M  END
>  <AUTHOR>
    GENERATED BY OPEN BABEL 2.3.2

>  <CHROM.1>
-50.00089915,-178.02429758,91.42606708,-43.22477225,-153.86473137,94.52078141
-76.74743685,-30.37073038,-50.26759253,-48.14862636,-87.87503312,-67.82622568
65.37233753,-12.06254692,-26.86639694,-2.49709895,-1.98798338,-0.80070821
2.97188994

>  <COMPND>
    UNNAMED

>  <MASTER>
        0    0    0    0    0    0    0    0   72    0   72    0

>  <Name>
ligands/mol2.pdb

>  <RI>
2.46609e+07

>  <Rbt.Current_Directory>
/home/rodrigo/Desktop/Rodrigo/Proyectos/test_OCONDOR/OCONDOR

>  <Rbt.Executable>
rbdock ($Id: //depot/dev/client3/rdock/2013.1/src/exe/rbdock.cxx#4 $)

>  <Rbt.Library>
libRbt.so (2013.1, Build901 2013/11/27)

>  <Rbt.Parameter_File>
dock.prm

>  <Rbt.Receptor>
rdock.prm

>  <SCORE>
-10.179

>  <SCORE.INTER>
-5.14488

>  <SCORE.INTER.CONST>
1

>  <SCORE.INTER.POLAR>
-0.428477

>  <SCORE.INTER.REPUL>
0

>  <SCORE.INTER.ROT>
12

>  <SCORE.INTER.VDW>
-21.0881

>  <SCORE.INTER.norm>
-0.13192

>  <SCORE.INTRA>
-5.03417

>  <SCORE.INTRA.DIHEDRAL>
-7.60117

>  <SCORE.INTRA.DIHEDRAL.0>
15.348

>  <SCORE.INTRA.POLAR>
0

>  <SCORE.INTRA.POLAR.0>
0

>  <SCORE.INTRA.REPUL>
0

>  <SCORE.INTRA.REPUL.0>
0

>  <SCORE.INTRA.VDW>
-1.23359

>  <SCORE.INTRA.VDW.0>
-3.74855

>  <SCORE.INTRA.norm>
-0.129081

>  <SCORE.RESTR>
0

>  <SCORE.RESTR.CAVITY>
0

>  <SCORE.RESTR.norm>
0

>  <SCORE.SYSTEM>
0

>  <SCORE.SYSTEM.CONST>
0

>  <SCORE.SYSTEM.DIHEDRAL>
0

>  <SCORE.SYSTEM.norm>
0

>  <SCORE.heavy>
39

>  <SCORE.norm>
-0.261001

$$$$
