ligands/mol2.pdb
  rDOCK(R)          3D
libRbt.so/2013.1/901 2013/11/27
 45 48  0  0  0  0  0  0  0  0999 V2000
  -10.4168   20.3152   64.9890 N   0  0  0  0  0  0
   -9.7795   19.1712   66.0583 S   0  0  0  0  0  0
   -8.4120   18.9072   65.6997 O   0  0  0  0  0  0
  -10.1335   19.6349   67.3895 O   0  0  0  0  0  0
  -10.7290   17.7096   65.7136 C   0  0  0  0  0  0
  -11.2693   17.4823   64.4436 C   0  0  0  0  0  0
  -11.8791   16.2534   64.1623 C   0  0  0  0  0  0
  -11.9431   15.2422   65.1360 C   0  0  0  0  0  0
  -12.4502   13.8489   64.7666 C   0  0  0  0  0  0
  -11.6945   12.6588   65.3577 C   0  0  0  0  0  0
  -10.4868   12.1981   64.8112 C   0  0  0  0  0  0
   -9.7876   11.1373   65.3870 C   0  0  0  0  0  0
  -10.2597   10.5405   66.5502 C   0  0  0  0  0  0
  -11.4663   10.9582   67.1103 C   0  0  0  0  0  0
  -11.8542   10.3570   68.3286 N   0  0  0  0  0  0
  -11.6499   10.9229   69.5734 C   0  0  0  0  0  0
  -11.2385   12.0541   69.7839 O   0  0  0  0  0  0
  -11.9844   10.0070   70.5599 N   0  0  0  0  0  0
  -11.4393    8.7121   70.6475 C   0  0  0  0  0  0
  -11.4357    8.0814   71.8931 C   0  0  0  0  0  0
  -10.8695    6.8104   72.0442 C   0  0  0  0  0  0
  -10.9306    6.0698   73.3564 C   0  0  0  0  0  0
  -10.5957    6.9068   74.6019 C   0  0  0  0  0  0
   -9.3150    7.6045   74.5347 N   0  0  0  0  0  0
   -8.2435    7.2165   75.3175 C   0  0  0  0  0  0
   -8.3291    6.2916   76.1252 O   0  0  0  0  0  0
   -6.9810    8.0971   75.1932 C   0  0  0  0  0  0
   -7.2597    9.5903   75.4245 C   0  0  0  0  0  0
   -7.2576   10.0733   76.8810 C   0  0  0  0  0  0
   -6.2571    9.4018   77.8251 C   0  0  0  0  0  0
   -5.0213   10.1169   77.8093 O   0  0  0  0  0  0
   -5.9561    7.9405   77.5157 C   0  0  0  0  0  0
   -5.7773    7.6578   76.0268 C   0  0  0  0  0  0
  -10.3044    6.2318   70.9113 C   0  0  0  0  0  0
  -10.2799    6.8163   69.6912 N   0  0  0  0  0  0
  -10.8554    8.0401   69.5813 C   0  0  0  0  0  0
  -12.1898   12.0045   66.5102 C   0  0  0  0  0  0
  -11.4516   15.5184   66.4233 C   0  0  0  0  0  0
  -10.8447   16.7447   66.7107 C   0  0  0  0  0  0
  -10.0062   21.2464   65.0645 H   0  0  0  0  0  0
  -11.4476   20.3149   65.0206 H   0  0  0  0  0  0
  -12.7130    9.8272   68.2975 H   0  0  0  0  0  0
  -12.9360   10.1145   70.8769 H   0  0  0  0  0  0
   -9.1311    8.1720   73.7169 H   0  0  0  0  0  0
   -4.4484    9.6986   78.4765 H   0  0  0  0  0  0
  1  2  1  0  0  0
  1 40  1  0  0  0
  1 41  1  0  0  0
  2  3  2  0  0  0
  2  4  2  0  0  0
  2  5  1  0  0  0
  5  6  2  0  0  0
  5 39  1  0  0  0
  6  7  1  0  0  0
  7  8  2  0  0  0
  8  9  1  0  0  0
  8 38  1  0  0  0
  9 10  1  0  0  0
 10 11  2  0  0  0
 10 37  1  0  0  0
 11 12  1  0  0  0
 12 13  2  0  0  0
 13 14  1  0  0  0
 14 15  1  0  0  0
 14 37  2  0  0  0
 15 16  1  0  0  0
 15 42  1  0  0  0
 16 17  2  0  0  0
 16 18  1  0  0  0
 18 19  1  0  0  0
 18 43  1  0  0  0
 19 20  2  0  0  0
 19 36  1  0  0  0
 20 21  1  0  0  0
 21 22  1  0  0  0
 21 34  2  0  0  0
 22 23  1  0  0  0
 23 24  1  0  0  0
 24 25  1  0  0  0
 24 44  1  0  0  0
 25 26  2  0  0  0
 25 27  1  0  0  0
 27 28  1  0  0  0
 27 33  1  0  0  0
 28 29  1  0  0  0
 29 30  1  0  0  0
 30 31  1  0  0  0
 30 32  1  0  0  0
 31 45  1  0  0  0
 32 33  1  0  0  0
 34 35  1  0  0  0
 35 36  2  0  0  0
 38 39  2  0  0  0
M  END
>  <AUTHOR>
    GENERATED BY OPEN BABEL 2.3.2

>  <CHROM.1>
-67.19409584,28.79198606,138.58475586,-79.94162327,97.81043931,7.73580761
54.86404313,156.09604774,-45.11391364,-53.62587389,-109.50253542,53.29720655
175.34513900,-9.90797236,11.72545247,69.98877382,-1.92403365,0.97655991,2.62493717

>  <COMPND>
    UNNAMED

>  <MASTER>
        0    0    0    0    0    0    0    0   72    0   72    0

>  <Name>
ligands/mol2.pdb

>  <RI>
3.61506e+07

>  <Rbt.Current_Directory>
/home/rodrigo/Desktop/Rodrigo/Proyectos/test_OCONDOR/OCONDOR

>  <Rbt.Executable>
rbdock ($Id: //depot/dev/client3/rdock/2013.1/src/exe/rbdock.cxx#4 $)

>  <Rbt.Library>
libRbt.so (2013.1, Build901 2013/11/27)

>  <Rbt.Parameter_File>
dock.prm

>  <Rbt.Receptor>
rdock.prm

>  <SCORE>
-20.7869

>  <SCORE.INTER>
-16.4868

>  <SCORE.INTER.CONST>
1

>  <SCORE.INTER.POLAR>
-1.60605

>  <SCORE.INTER.REPUL>
0.00928385

>  <SCORE.INTER.ROT>
12

>  <SCORE.INTER.VDW>
-28.4726

>  <SCORE.INTER.norm>
-0.422738

>  <SCORE.INTRA>
-4.3001

>  <SCORE.INTRA.DIHEDRAL>
-7.84863

>  <SCORE.INTRA.DIHEDRAL.0>
15.348

>  <SCORE.INTRA.POLAR>
0

>  <SCORE.INTRA.POLAR.0>
0

>  <SCORE.INTRA.REPUL>
0

>  <SCORE.INTRA.REPUL.0>
0

>  <SCORE.INTRA.VDW>
-0.375785

>  <SCORE.INTRA.VDW.0>
-3.74855

>  <SCORE.INTRA.norm>
-0.110259

>  <SCORE.RESTR>
0

>  <SCORE.RESTR.CAVITY>
0

>  <SCORE.RESTR.norm>
0

>  <SCORE.SYSTEM>
0

>  <SCORE.SYSTEM.CONST>
0

>  <SCORE.SYSTEM.DIHEDRAL>
0

>  <SCORE.SYSTEM.norm>
0

>  <SCORE.heavy>
39

>  <SCORE.norm>
-0.532997

$$$$
ligands/mol2.pdb
  rDOCK(R)          3D
libRbt.so/2013.1/901 2013/11/27
 45 48  0  0  0  0  0  0  0  0999 V2000
   -7.8607    9.0336   76.3702 N   0  0  0  0  0  0
   -7.1444    8.2966   75.0278 S   0  0  0  0  0  0
   -6.7905    9.3106   74.0712 O   0  0  0  0  0  0
   -6.1472    7.3849   75.5633 O   0  0  0  0  0  0
   -8.4628    7.3267   74.3365 C   0  0  0  0  0  0
   -9.5395    6.9061   75.1241 C   0  0  0  0  0  0
  -10.6342    6.2772   74.5181 C   0  0  0  0  0  0
  -10.6694    6.0753   73.1279 C   0  0  0  0  0  0
  -11.9386    5.5505   72.4581 C   0  0  0  0  0  0
  -12.9736    6.5898   72.0275 C   0  0  0  0  0  0
  -14.3457    6.4171   72.2658 C   0  0  0  0  0  0
  -15.2736    7.3936   71.9042 C   0  0  0  0  0  0
  -14.8444    8.5866   71.3342 C   0  0  0  0  0  0
  -13.4910    8.7852   71.0641 C   0  0  0  0  0  0
  -13.1146   10.0451   70.5475 N   0  0  0  0  0  0
  -11.8528   10.3418   70.0666 C   0  0  0  0  0  0
  -10.9130   10.7492   70.7330 O   0  0  0  0  0  0
  -11.8097   10.1064   68.7003 N   0  0  0  0  0  0
  -11.1014   10.9093   67.7865 C   0  0  0  0  0  0
  -11.8059   11.4746   66.7219 C   0  0  0  0  0  0
  -11.1428   12.2479   65.7620 C   0  0  0  0  0  0
  -11.8920   12.9425   64.6528 C   0  0  0  0  0  0
  -12.2003   12.0747   63.4216 C   0  0  0  0  0  0
  -11.0261   11.4717   62.7978 N   0  0  0  0  0  0
  -10.3985   10.3746   63.3581 C   0  0  0  0  0  0
  -10.7790    9.8786   64.4185 O   0  0  0  0  0  0
   -9.1250    9.8967   62.6268 C   0  0  0  0  0  0
   -7.9128   10.8107   62.8633 C   0  0  0  0  0  0
   -7.0895   10.5478   64.1314 C   0  0  0  0  0  0
   -6.9508    9.0874   64.5689 C   0  0  0  0  0  0
   -5.7994    8.5057   63.9570 O   0  0  0  0  0  0
   -8.1482    8.2003   64.2508 C   0  0  0  0  0  0
   -8.7300    8.4386   62.8603 C   0  0  0  0  0  0
   -9.7678   12.4013   65.9144 C   0  0  0  0  0  0
   -9.0501   11.8607   66.9262 N   0  0  0  0  0  0
   -9.7319   11.1334   67.8466 C   0  0  0  0  0  0
  -12.5584    7.7861   71.3962 C   0  0  0  0  0  0
   -9.5477    6.4476   72.3675 C   0  0  0  0  0  0
   -8.4506    7.0729   72.9675 C   0  0  0  0  0  0
   -7.6883    8.5630   77.2591 H   0  0  0  0  0  0
   -8.8575    9.2307   76.1940 H   0  0  0  0  0  0
  -13.8325   10.5369   70.0356 H   0  0  0  0  0  0
  -12.6565    9.6785   68.3576 H   0  0  0  0  0  0
  -10.8566   11.6743   61.8206 H   0  0  0  0  0  0
   -5.0377    9.0531   64.2188 H   0  0  0  0  0  0
  1  2  1  0  0  0
  1 40  1  0  0  0
  1 41  1  0  0  0
  2  3  2  0  0  0
  2  4  2  0  0  0
  2  5  1  0  0  0
  5  6  2  0  0  0
  5 39  1  0  0  0
  6  7  1  0  0  0
  7  8  2  0  0  0
  8  9  1  0  0  0
  8 38  1  0  0  0
  9 10  1  0  0  0
 10 11  2  0  0  0
 10 37  1  0  0  0
 11 12  1  0  0  0
 12 13  2  0  0  0
 13 14  1  0  0  0
 14 15  1  0  0  0
 14 37  2  0  0  0
 15 16  1  0  0  0
 15 42  1  0  0  0
 16 17  2  0  0  0
 16 18  1  0  0  0
 18 19  1  0  0  0
 18 43  1  0  0  0
 19 20  2  0  0  0
 19 36  1  0  0  0
 20 21  1  0  0  0
 21 22  1  0  0  0
 21 34  2  0  0  0
 22 23  1  0  0  0
 23 24  1  0  0  0
 24 25  1  0  0  0
 24 44  1  0  0  0
 25 26  2  0  0  0
 25 27  1  0  0  0
 27 28  1  0  0  0
 27 33  1  0  0  0
 28 29  1  0  0  0
 29 30  1  0  0  0
 30 31  1  0  0  0
 30 32  1  0  0  0
 31 45  1  0  0  0
 32 33  1  0  0  0
 34 35  1  0  0  0
 35 36  2  0  0  0
 38 39  2  0  0  0
M  END
>  <AUTHOR>
    GENERATED BY OPEN BABEL 2.3.2

>  <CHROM.1>
-147.81518498,-23.79028140,87.77910386,-135.58672901,-171.19621946,-87.86303516
142.55304091,-123.45187137,-83.87947223,-56.58055821,76.40904101,74.64251688
57.38612685,-10.09055046,9.19394172,69.17020824,-1.57518831,0.04247091,-1.27048627

>  <COMPND>
    UNNAMED

>  <MASTER>
        0    0    0    0    0    0    0    0   72    0   72    0

>  <Name>
ligands/mol2.pdb

>  <RI>
3.61506e+07

>  <Rbt.Current_Directory>
/home/rodrigo/Desktop/Rodrigo/Proyectos/test_OCONDOR/OCONDOR

>  <Rbt.Executable>
rbdock ($Id: //depot/dev/client3/rdock/2013.1/src/exe/rbdock.cxx#4 $)

>  <Rbt.Library>
libRbt.so (2013.1, Build901 2013/11/27)

>  <Rbt.Parameter_File>
dock.prm

>  <Rbt.Receptor>
rdock.prm

>  <SCORE>
-20.9419

>  <SCORE.INTER>
-16.0805

>  <SCORE.INTER.CONST>
1

>  <SCORE.INTER.POLAR>
-2.04983

>  <SCORE.INTER.REPUL>
0.228295

>  <SCORE.INTER.ROT>
12

>  <SCORE.INTER.VDW>
-27.6526

>  <SCORE.INTER.norm>
-0.412321

>  <SCORE.INTRA>
-4.86139

>  <SCORE.INTRA.DIHEDRAL>
-5.35103

>  <SCORE.INTRA.DIHEDRAL.0>
15.348

>  <SCORE.INTRA.POLAR>
0

>  <SCORE.INTRA.POLAR.0>
0

>  <SCORE.INTRA.REPUL>
0

>  <SCORE.INTRA.REPUL.0>
0

>  <SCORE.INTRA.VDW>
-2.18587

>  <SCORE.INTRA.VDW.0>
-3.74855

>  <SCORE.INTRA.norm>
-0.124651

>  <SCORE.RESTR>
0

>  <SCORE.RESTR.CAVITY>
0

>  <SCORE.RESTR.norm>
0

>  <SCORE.SYSTEM>
0

>  <SCORE.SYSTEM.CONST>
0

>  <SCORE.SYSTEM.DIHEDRAL>
0

>  <SCORE.SYSTEM.norm>
0

>  <SCORE.heavy>
39

>  <SCORE.norm>
-0.536972

$$$$
ligands/mol2.pdb
  rDOCK(R)          3D
libRbt.so/2013.1/901 2013/11/27
 45 48  0  0  0  0  0  0  0  0999 V2000
  -10.2610    9.5653   61.2505 N   0  0  0  0  0  0
   -9.3137   10.4768   62.3136 S   0  0  0  0  0  0
   -8.5926    9.5836   63.1801 O   0  0  0  0  0  0
   -8.6187   11.4500   61.4876 O   0  0  0  0  0  0
  -10.5133   11.3443   63.2958 C   0  0  0  0  0  0
  -10.8459   10.9070   64.5821 C   0  0  0  0  0  0
  -11.6769   11.6965   65.3866 C   0  0  0  0  0  0
  -12.1698   12.9277   64.9220 C   0  0  0  0  0  0
  -12.9274   13.8595   65.8669 C   0  0  0  0  0  0
  -12.4810   13.8739   67.3289 C   0  0  0  0  0  0
  -12.1642   15.0655   67.9988 C   0  0  0  0  0  0
  -11.7988   15.0662   69.3449 C   0  0  0  0  0  0
  -11.7842   13.8768   70.0642 C   0  0  0  0  0  0
  -12.0735   12.6709   69.4271 C   0  0  0  0  0  0
  -12.1074   11.5091   70.2302 N   0  0  0  0  0  0
  -11.2819   10.4150   70.0484 C   0  0  0  0  0  0
  -11.1963    9.7477   69.0282 O   0  0  0  0  0  0
  -10.5568   10.1831   71.2078 N   0  0  0  0  0  0
   -9.2257    9.7254   71.2239 C   0  0  0  0  0  0
   -8.8342    8.8731   72.2582 C   0  0  0  0  0  0
   -7.5124    8.4212   72.3445 C   0  0  0  0  0  0
   -7.0837    7.4314   73.3983 C   0  0  0  0  0  0
   -8.2234    6.8142   74.2255 C   0  0  0  0  0  0
   -9.3092    6.2481   73.4304 N   0  0  0  0  0  0
   -9.8080    4.9853   73.6914 C   0  0  0  0  0  0
   -9.3412    4.2722   74.5795 O   0  0  0  0  0  0
  -10.9013    4.4925   72.7185 C   0  0  0  0  0  0
  -12.1829    5.3384   72.7701 C   0  0  0  0  0  0
  -12.2075    6.6042   71.9029 C   0  0  0  0  0  0
  -11.4826    6.5279   70.5568 C   0  0  0  0  0  0
  -12.3838    6.0748   69.5463 O   0  0  0  0  0  0
  -10.2578    5.6216   70.5321 C   0  0  0  0  0  0
  -10.4637    4.2999   71.2665 C   0  0  0  0  0  0
   -6.6247    8.8757   71.3735 C   0  0  0  0  0  0
   -6.9647    9.7092   70.3632 N   0  0  0  0  0  0
   -8.2596   10.1101   70.3031 C   0  0  0  0  0  0
  -12.4079   12.6653   68.0609 C   0  0  0  0  0  0
  -11.8748   13.3138   63.6034 C   0  0  0  0  0  0
  -11.0483   12.5281   62.7945 C   0  0  0  0  0  0
   -9.7333    9.0091   60.5771 H   0  0  0  0  0  0
  -10.9952   10.1475   60.8198 H   0  0  0  0  0  0
  -12.3121   11.6619   71.2069 H   0  0  0  0  0  0
  -11.1419    9.8849   71.9735 H   0  0  0  0  0  0
   -9.8793    6.8870   72.8907 H   0  0  0  0  0  0
  -12.9992    6.8090   69.3716 H   0  0  0  0  0  0
  1  2  1  0  0  0
  1 40  1  0  0  0
  1 41  1  0  0  0
  2  3  2  0  0  0
  2  4  2  0  0  0
  2  5  1  0  0  0
  5  6  2  0  0  0
  5 39  1  0  0  0
  6  7  1  0  0  0
  7  8  2  0  0  0
  8  9  1  0  0  0
  8 38  1  0  0  0
  9 10  1  0  0  0
 10 11  2  0  0  0
 10 37  1  0  0  0
 11 12  1  0  0  0
 12 13  2  0  0  0
 13 14  1  0  0  0
 14 15  1  0  0  0
 14 37  2  0  0  0
 15 16  1  0  0  0
 15 42  1  0  0  0
 16 17  2  0  0  0
 16 18  1  0  0  0
 18 19  1  0  0  0
 18 43  1  0  0  0
 19 20  2  0  0  0
 19 36  1  0  0  0
 20 21  1  0  0  0
 21 22  1  0  0  0
 21 34  2  0  0  0
 22 23  1  0  0  0
 23 24  1  0  0  0
 24 25  1  0  0  0
 24 44  1  0  0  0
 25 26  2  0  0  0
 25 27  1  0  0  0
 27 28  1  0  0  0
 27 33  1  0  0  0
 28 29  1  0  0  0
 29 30  1  0  0  0
 30 31  1  0  0  0
 30 32  1  0  0  0
 31 45  1  0  0  0
 32 33  1  0  0  0
 34 35  1  0  0  0
 35 36  2  0  0  0
 38 39  2  0  0  0
M  END
>  <AUTHOR>
    GENERATED BY OPEN BABEL 2.3.2

>  <CHROM.1>
-66.93769054,100.82379659,34.06468870,127.58691910,-119.65889093,-58.08544237
-144.13191425,-145.71771324,8.28960942,51.24165169,132.00408980,-64.00672124
72.14550166,-10.38089642,9.60549685,68.67749344,-1.86625222,-1.21186793,1.86456206

>  <COMPND>
    UNNAMED

>  <MASTER>
        0    0    0    0    0    0    0    0   72    0   72    0

>  <Name>
ligands/mol2.pdb

>  <RI>
3.61506e+07

>  <Rbt.Current_Directory>
/home/rodrigo/Desktop/Rodrigo/Proyectos/test_OCONDOR/OCONDOR

>  <Rbt.Executable>
rbdock ($Id: //depot/dev/client3/rdock/2013.1/src/exe/rbdock.cxx#4 $)

>  <Rbt.Library>
libRbt.so (2013.1, Build901 2013/11/27)

>  <Rbt.Parameter_File>
dock.prm

>  <Rbt.Receptor>
rdock.prm

>  <SCORE>
-18.8787

>  <SCORE.INTER>
-15.3713

>  <SCORE.INTER.CONST>
1

>  <SCORE.INTER.POLAR>
-1.78885

>  <SCORE.INTER.REPUL>
0.140619

>  <SCORE.INTER.ROT>
12

>  <SCORE.INTER.VDW>
-27.3923

>  <SCORE.INTER.norm>
-0.394136

>  <SCORE.INTRA>
-3.50736

>  <SCORE.INTRA.DIHEDRAL>
-7.02647

>  <SCORE.INTRA.DIHEDRAL.0>
15.348

>  <SCORE.INTRA.POLAR>
0

>  <SCORE.INTRA.POLAR.0>
0

>  <SCORE.INTRA.REPUL>
0

>  <SCORE.INTRA.REPUL.0>
0

>  <SCORE.INTRA.VDW>
0.00587841

>  <SCORE.INTRA.VDW.0>
-3.74855

>  <SCORE.INTRA.norm>
-0.0899322

>  <SCORE.RESTR>
0

>  <SCORE.RESTR.CAVITY>
0

>  <SCORE.RESTR.norm>
0

>  <SCORE.SYSTEM>
0

>  <SCORE.SYSTEM.CONST>
0

>  <SCORE.SYSTEM.DIHEDRAL>
0

>  <SCORE.SYSTEM.norm>
0

>  <SCORE.heavy>
39

>  <SCORE.norm>
-0.484068

$$$$
ligands/mol2.pdb
  rDOCK(R)          3D
libRbt.so/2013.1/901 2013/11/27
 45 48  0  0  0  0  0  0  0  0999 V2000
   -5.8457    9.5428   78.0809 N   0  0  0  0  0  0
   -6.0216   10.4916   76.6928 S   0  0  0  0  0  0
   -6.9484   11.5563   76.9687 O   0  0  0  0  0  0
   -4.6718   10.7684   76.2302 O   0  0  0  0  0  0
   -6.7862    9.3862   75.5309 C   0  0  0  0  0  0
   -7.8630    8.5761   75.9060 C   0  0  0  0  0  0
   -8.5400    7.8323   74.9316 C   0  0  0  0  0  0
   -8.1586    7.8999   73.5807 C   0  0  0  0  0  0
   -9.0100    7.2256   72.5058 C   0  0  0  0  0  0
  -10.3849    7.8342   72.2301 C   0  0  0  0  0  0
  -11.3974    7.8568   73.2015 C   0  0  0  0  0  0
  -12.6327    8.4531   72.9485 C   0  0  0  0  0  0
  -12.8681    9.0799   71.7304 C   0  0  0  0  0  0
  -11.8930    9.0601   70.7339 C   0  0  0  0  0  0
  -12.1700    9.7735   69.5463 N   0  0  0  0  0  0
  -11.2030   10.3461   68.7410 C   0  0  0  0  0  0
  -10.0012   10.1366   68.8105 O   0  0  0  0  0  0
  -11.8047   11.2038   67.8319 N   0  0  0  0  0  0
  -11.7459   12.6075   67.9184 C   0  0  0  0  0  0
  -10.8992   13.1742   68.8730 C   0  0  0  0  0  0
  -10.8330   14.5636   69.0287 C   0  0  0  0  0  0
   -9.8636   15.2051   69.9892 C   0  0  0  0  0  0
   -8.6108   15.8230   69.3469 C   0  0  0  0  0  0
   -8.8864   16.8909   68.3902 N   0  0  0  0  0  0
   -9.0569   16.6237   67.0445 C   0  0  0  0  0  0
   -8.9532   15.4847   66.5892 O   0  0  0  0  0  0
   -9.2649   17.8622   66.1458 C   0  0  0  0  0  0
  -10.6050   18.5716   66.3942 C   0  0  0  0  0  0
  -10.6407   19.5945   67.5376 C   0  0  0  0  0  0
   -9.3699   20.4180   67.7614 C   0  0  0  0  0  0
   -9.4210   21.6103   66.9774 O   0  0  0  0  0  0
   -8.0669   19.6987   67.4347 C   0  0  0  0  0  0
   -8.1280   18.8840   66.1458 C   0  0  0  0  0  0
  -11.6562   15.3309   68.2095 C   0  0  0  0  0  0
  -12.4963   14.8175   67.2812 N   0  0  0  0  0  0
  -12.5180   13.4674   67.1478 C   0  0  0  0  0  0
  -10.6600    8.4282   70.9757 C   0  0  0  0  0  0
   -7.0336    8.6696   73.2391 C   0  0  0  0  0  0
   -6.3519    9.4117   74.2082 C   0  0  0  0  0  0
   -6.6560    8.9663   78.3103 H   0  0  0  0  0  0
   -5.5039   10.1082   78.8727 H   0  0  0  0  0  0
  -12.9489    9.4290   69.0042 H   0  0  0  0  0  0
  -12.6470   10.8145   67.4363 H   0  0  0  0  0  0
   -9.2365   17.7686   68.7532 H   0  0  0  0  0  0
  -10.1191   22.1686   67.3638 H   0  0  0  0  0  0
  1  2  1  0  0  0
  1 40  1  0  0  0
  1 41  1  0  0  0
  2  3  2  0  0  0
  2  4  2  0  0  0
  2  5  1  0  0  0
  5  6  2  0  0  0
  5 39  1  0  0  0
  6  7  1  0  0  0
  7  8  2  0  0  0
  8  9  1  0  0  0
  8 38  1  0  0  0
  9 10  1  0  0  0
 10 11  2  0  0  0
 10 37  1  0  0  0
 11 12  1  0  0  0
 12 13  2  0  0  0
 13 14  1  0  0  0
 14 15  1  0  0  0
 14 37  2  0  0  0
 15 16  1  0  0  0
 15 42  1  0  0  0
 16 17  2  0  0  0
 16 18  1  0  0  0
 18 19  1  0  0  0
 18 43  1  0  0  0
 19 20  2  0  0  0
 19 36  1  0  0  0
 20 21  1  0  0  0
 21 22  1  0  0  0
 21 34  2  0  0  0
 22 23  1  0  0  0
 23 24  1  0  0  0
 24 25  1  0  0  0
 24 44  1  0  0  0
 25 26  2  0  0  0
 25 27  1  0  0  0
 27 28  1  0  0  0
 27 33  1  0  0  0
 28 29  1  0  0  0
 29 30  1  0  0  0
 30 31  1  0  0  0
 30 32  1  0  0  0
 31 45  1  0  0  0
 32 33  1  0  0  0
 34 35  1  0  0  0
 35 36  2  0  0  0
 38 39  2  0  0  0
M  END
>  <AUTHOR>
    GENERATED BY OPEN BABEL 2.3.2

>  <CHROM.1>
71.47909786,45.36402851,68.74110286,-63.95422448,150.88011491,12.80488388
106.32377384,8.31042830,102.49582284,60.50233441,-90.98176012,-68.27444037
68.80505668,-9.40110236,12.70488284,70.79173265,-1.33329035,-0.79787495,-0.54448931

>  <COMPND>
    UNNAMED

>  <MASTER>
        0    0    0    0    0    0    0    0   72    0   72    0

>  <Name>
ligands/mol2.pdb

>  <RI>
3.61506e+07

>  <Rbt.Current_Directory>
/home/rodrigo/Desktop/Rodrigo/Proyectos/test_OCONDOR/OCONDOR

>  <Rbt.Executable>
rbdock ($Id: //depot/dev/client3/rdock/2013.1/src/exe/rbdock.cxx#4 $)

>  <Rbt.Library>
libRbt.so (2013.1, Build901 2013/11/27)

>  <Rbt.Parameter_File>
dock.prm

>  <Rbt.Receptor>
rdock.prm

>  <SCORE>
-19.7742

>  <SCORE.INTER>
-14.4674

>  <SCORE.INTER.CONST>
1

>  <SCORE.INTER.POLAR>
-1.84291

>  <SCORE.INTER.REPUL>
0.0100289

>  <SCORE.INTER.ROT>
12

>  <SCORE.INTER.VDW>
-25.6516

>  <SCORE.INTER.norm>
-0.370958

>  <SCORE.INTRA>
-5.30684

>  <SCORE.INTRA.DIHEDRAL>
-8.00446

>  <SCORE.INTRA.DIHEDRAL.0>
15.348

>  <SCORE.INTRA.POLAR>
0

>  <SCORE.INTRA.POLAR.0>
0

>  <SCORE.INTRA.REPUL>
0

>  <SCORE.INTRA.REPUL.0>
0

>  <SCORE.INTRA.VDW>
-1.30461

>  <SCORE.INTRA.VDW.0>
-3.74855

>  <SCORE.INTRA.norm>
-0.136073

>  <SCORE.RESTR>
0

>  <SCORE.RESTR.CAVITY>
0

>  <SCORE.RESTR.norm>
0

>  <SCORE.SYSTEM>
0

>  <SCORE.SYSTEM.CONST>
0

>  <SCORE.SYSTEM.DIHEDRAL>
0

>  <SCORE.SYSTEM.norm>
0

>  <SCORE.heavy>
39

>  <SCORE.norm>
-0.507031

$$$$
ligands/mol2.pdb
  rDOCK(R)          3D
libRbt.so/2013.1/901 2013/11/27
 45 48  0  0  0  0  0  0  0  0999 V2000
  -11.5787   14.3962   71.4218 N   0  0  0  0  0  0
  -12.1232   15.6604   70.4401 S   0  0  0  0  0  0
  -13.5138   15.9016   70.7171 O   0  0  0  0  0  0
  -11.1341   16.7170   70.5723 O   0  0  0  0  0  0
  -11.9990   14.9917   68.7987 C   0  0  0  0  0  0
  -12.4636   13.7053   68.5059 C   0  0  0  0  0  0
  -12.4920   13.2673   67.1760 C   0  0  0  0  0  0
  -12.0716   14.1089   66.1320 C   0  0  0  0  0  0
  -12.2712   13.6883   64.6766 C   0  0  0  0  0  0
  -11.4210   12.5228   64.1709 C   0  0  0  0  0  0
  -10.7261   12.5817   62.9531 C   0  0  0  0  0  0
   -9.9210   11.5262   62.5252 C   0  0  0  0  0  0
   -9.7580   10.4034   63.3283 C   0  0  0  0  0  0
  -10.4484   10.3009   64.5353 C   0  0  0  0  0  0
  -10.1855    9.1658   65.3342 N   0  0  0  0  0  0
   -9.7836    9.2225   66.6559 C   0  0  0  0  0  0
   -8.7285    8.7947   67.0996 O   0  0  0  0  0  0
  -10.7658    9.8436   67.4132 N   0  0  0  0  0  0
  -10.8005    9.8279   68.8204 C   0  0  0  0  0  0
  -12.0372    9.9784   69.4508 C   0  0  0  0  0  0
  -12.1234   10.0106   70.8474 C   0  0  0  0  0  0
  -13.4531   10.0832   71.5549 C   0  0  0  0  0  0
  -13.6536    9.0629   72.6875 C   0  0  0  0  0  0
  -13.2248    7.7059   72.3614 N   0  0  0  0  0  0
  -12.0904    7.1551   72.9281 C   0  0  0  0  0  0
  -11.3766    7.7906   73.7040 O   0  0  0  0  0  0
  -11.7214    5.7414   72.4281 C   0  0  0  0  0  0
  -11.1975    5.7282   70.9838 C   0  0  0  0  0  0
   -9.7017    6.0119   70.7916 C   0  0  0  0  0  0
   -8.7583    5.4829   71.8747 C   0  0  0  0  0  0
   -8.3329    4.1609   71.5429 O   0  0  0  0  0  0
   -9.3435    5.4469   73.2812 C   0  0  0  0  0  0
  -10.7820    4.9400   73.3292 C   0  0  0  0  0  0
  -10.9302    9.9064   71.5565 C   0  0  0  0  0  0
   -9.7133    9.7697   70.9808 N   0  0  0  0  0  0
   -9.6734    9.7241   69.6253 C   0  0  0  0  0  0
  -11.2882   11.3498   64.9509 C   0  0  0  0  0  0
  -11.5484   15.3718   66.4578 C   0  0  0  0  0  0
  -11.5146   15.8130   67.7840 C   0  0  0  0  0  0
  -10.6022   14.1355   71.2808 H   0  0  0  0  0  0
  -12.2287   13.5964   71.3867 H   0  0  0  0  0  0
  -10.7752    8.3653   65.1591 H   0  0  0  0  0  0
  -11.6583    9.8624   66.9436 H   0  0  0  0  0  0
  -13.9099    7.0812   71.9551 H   0  0  0  0  0  0
   -9.1400    3.6262   71.4375 H   0  0  0  0  0  0
  1  2  1  0  0  0
  1 40  1  0  0  0
  1 41  1  0  0  0
  2  3  2  0  0  0
  2  4  2  0  0  0
  2  5  1  0  0  0
  5  6  2  0  0  0
  5 39  1  0  0  0
  6  7  1  0  0  0
  7  8  2  0  0  0
  8  9  1  0  0  0
  8 38  1  0  0  0
  9 10  1  0  0  0
 10 11  2  0  0  0
 10 37  1  0  0  0
 11 12  1  0  0  0
 12 13  2  0  0  0
 13 14  1  0  0  0
 14 15  1  0  0  0
 14 37  2  0  0  0
 15 16  1  0  0  0
 15 42  1  0  0  0
 16 17  2  0  0  0
 16 18  1  0  0  0
 18 19  1  0  0  0
 18 43  1  0  0  0
 19 20  2  0  0  0
 19 36  1  0  0  0
 20 21  1  0  0  0
 21 22  1  0  0  0
 21 34  2  0  0  0
 22 23  1  0  0  0
 23 24  1  0  0  0
 24 25  1  0  0  0
 24 44  1  0  0  0
 25 26  2  0  0  0
 25 27  1  0  0  0
 27 28  1  0  0  0
 27 33  1  0  0  0
 28 29  1  0  0  0
 29 30  1  0  0  0
 30 31  1  0  0  0
 30 32  1  0  0  0
 31 45  1  0  0  0
 32 33  1  0  0  0
 34 35  1  0  0  0
 35 36  2  0  0  0
 38 39  2  0  0  0
M  END
>  <AUTHOR>
    GENERATED BY OPEN BABEL 2.3.2

>  <CHROM.1>
178.61969502,45.94271859,-69.30451528,-132.46341924,125.18921198,-118.39144305
166.80041124,-154.19323117,130.84408594,-44.56419846,108.30091293,70.98985834
-56.69528099,-11.16803808,10.58817615,69.13703552,1.88722226,1.23418474,-0.90886854

>  <COMPND>
    UNNAMED

>  <MASTER>
        0    0    0    0    0    0    0    0   72    0   72    0

>  <Name>
ligands/mol2.pdb

>  <RI>
3.61506e+07

>  <Rbt.Current_Directory>
/home/rodrigo/Desktop/Rodrigo/Proyectos/test_OCONDOR/OCONDOR

>  <Rbt.Executable>
rbdock ($Id: //depot/dev/client3/rdock/2013.1/src/exe/rbdock.cxx#4 $)

>  <Rbt.Library>
libRbt.so (2013.1, Build901 2013/11/27)

>  <Rbt.Parameter_File>
dock.prm

>  <Rbt.Receptor>
rdock.prm

>  <SCORE>
-18.3662

>  <SCORE.INTER>
-13.0985

>  <SCORE.INTER.CONST>
1

>  <SCORE.INTER.POLAR>
-0.471064

>  <SCORE.INTER.REPUL>
0

>  <SCORE.INTER.ROT>
12

>  <SCORE.INTER.VDW>
-28.8969

>  <SCORE.INTER.norm>
-0.335859

>  <SCORE.INTRA>
-5.26768

>  <SCORE.INTRA.DIHEDRAL>
-6.1236

>  <SCORE.INTRA.DIHEDRAL.0>
15.348

>  <SCORE.INTRA.POLAR>
0

>  <SCORE.INTRA.POLAR.0>
0

>  <SCORE.INTRA.REPUL>
0

>  <SCORE.INTRA.REPUL.0>
0

>  <SCORE.INTRA.VDW>
-2.20588

>  <SCORE.INTRA.VDW.0>
-3.74855

>  <SCORE.INTRA.norm>
-0.135069

>  <SCORE.RESTR>
0

>  <SCORE.RESTR.CAVITY>
0

>  <SCORE.RESTR.norm>
0

>  <SCORE.SYSTEM>
0

>  <SCORE.SYSTEM.CONST>
0

>  <SCORE.SYSTEM.DIHEDRAL>
0

>  <SCORE.SYSTEM.norm>
0

>  <SCORE.heavy>
39

>  <SCORE.norm>
-0.470928

$$$$
ligands/mol2.pdb
  rDOCK(R)          3D
libRbt.so/2013.1/901 2013/11/27
 45 48  0  0  0  0  0  0  0  0999 V2000
   -5.7798    6.2715   75.4213 N   0  0  0  0  0  0
   -6.6870    7.6957   75.3385 S   0  0  0  0  0  0
   -7.0233    8.1139   76.6728 O   0  0  0  0  0  0
   -5.9627    8.5730   74.4338 O   0  0  0  0  0  0
   -8.1844    7.1854   74.5298 C   0  0  0  0  0  0
   -8.2530    7.0800   73.1367 C   0  0  0  0  0  0
   -9.3946    6.5295   72.5412 C   0  0  0  0  0  0
  -10.4658    6.0705   73.3265 C   0  0  0  0  0  0
  -11.6254    5.3140   72.6800 C   0  0  0  0  0  0
  -12.8308    6.1435   72.2374 C   0  0  0  0  0  0
  -14.1468    5.7701   72.5505 C   0  0  0  0  0  0
  -15.2339    6.5594   72.1755 C   0  0  0  0  0  0
  -15.0257    7.7648   71.5151 C   0  0  0  0  0  0
  -13.7336    8.1586   71.1696 C   0  0  0  0  0  0
  -13.5864    9.4250   70.5610 N   0  0  0  0  0  0
  -12.9038   10.4848   71.1289 C   0  0  0  0  0  0
  -13.1285   10.9718   72.2269 O   0  0  0  0  0  0
  -11.9150   10.9195   70.2587 N   0  0  0  0  0  0
  -12.0726   11.9947   69.3640 C   0  0  0  0  0  0
  -12.2896   13.2676   69.8951 C   0  0  0  0  0  0
  -12.4931   14.3647   69.0501 C   0  0  0  0  0  0
  -12.6415   15.7633   69.5940 C   0  0  0  0  0  0
  -11.5076   16.2343   70.5195 C   0  0  0  0  0  0
  -10.1770   15.7831   70.1229 N   0  0  0  0  0  0
   -9.6741   16.0490   68.8628 C   0  0  0  0  0  0
  -10.3332   16.6465   68.0120 O   0  0  0  0  0  0
   -8.2860   15.4419   68.5635 C   0  0  0  0  0  0
   -8.0949   14.0422   69.1676 C   0  0  0  0  0  0
   -8.6133   12.8586   68.3398 C   0  0  0  0  0  0
   -8.4893   12.9785   66.8188 C   0  0  0  0  0  0
   -7.2325   12.4519   66.3922 O   0  0  0  0  0  0
   -8.6142   14.3943   66.2692 C   0  0  0  0  0  0
   -7.8641   15.4360   67.0942 C   0  0  0  0  0  0
  -12.4870   14.1168   67.6804 C   0  0  0  0  0  0
  -12.2903   12.8966   67.1297 N   0  0  0  0  0  0
  -12.0782   11.8619   67.9814 C   0  0  0  0  0  0
  -12.6393    7.3458   71.5165 C   0  0  0  0  0  0
  -10.4004    6.2471   74.7191 C   0  0  0  0  0  0
   -9.2645    6.7990   75.3189 C   0  0  0  0  0  0
   -5.0547    6.2675   76.1394 H   0  0  0  0  0  0
   -5.4378    5.9978   74.4877 H   0  0  0  0  0  0
  -13.4885    9.4155   69.5563 H   0  0  0  0  0  0
  -11.3138   10.1686   69.9548 H   0  0  0  0  0  0
   -9.5253   15.5377   70.8576 H   0  0  0  0  0  0
   -7.2267   12.4972   65.4195 H   0  0  0  0  0  0
  1  2  1  0  0  0
  1 40  1  0  0  0
  1 41  1  0  0  0
  2  3  2  0  0  0
  2  4  2  0  0  0
  2  5  1  0  0  0
  5  6  2  0  0  0
  5 39  1  0  0  0
  6  7  1  0  0  0
  7  8  2  0  0  0
  8  9  1  0  0  0
  8 38  1  0  0  0
  9 10  1  0  0  0
 10 11  2  0  0  0
 10 37  1  0  0  0
 11 12  1  0  0  0
 12 13  2  0  0  0
 13 14  1  0  0  0
 14 15  1  0  0  0
 14 37  2  0  0  0
 15 16  1  0  0  0
 15 42  1  0  0  0
 16 17  2  0  0  0
 16 18  1  0  0  0
 18 19  1  0  0  0
 18 43  1  0  0  0
 19 20  2  0  0  0
 19 36  1  0  0  0
 20 21  1  0  0  0
 21 22  1  0  0  0
 21 34  2  0  0  0
 22 23  1  0  0  0
 23 24  1  0  0  0
 24 25  1  0  0  0
 24 44  1  0  0  0
 25 26  2  0  0  0
 25 27  1  0  0  0
 27 28  1  0  0  0
 27 33  1  0  0  0
 28 29  1  0  0  0
 29 30  1  0  0  0
 30 31  1  0  0  0
 30 32  1  0  0  0
 31 45  1  0  0  0
 32 33  1  0  0  0
 34 35  1  0  0  0
 35 36  2  0  0  0
 38 39  2  0  0  0
M  END
>  <AUTHOR>
    GENERATED BY OPEN BABEL 2.3.2

>  <CHROM.1>
-43.61518200,-82.52173355,-92.53923769,-132.32432427,115.40482668,-55.87202954
96.05298858,63.42145135,53.77195713,37.58458007,55.84941727,37.75933020,176.37997140
-10.37197416,10.62305695,71.02463679,-1.49192118,-0.27935533,-0.62655441

>  <COMPND>
    UNNAMED

>  <MASTER>
        0    0    0    0    0    0    0    0   72    0   72    0

>  <Name>
ligands/mol2.pdb

>  <RI>
3.61506e+07

>  <Rbt.Current_Directory>
/home/rodrigo/Desktop/Rodrigo/Proyectos/test_OCONDOR/OCONDOR

>  <Rbt.Executable>
rbdock ($Id: //depot/dev/client3/rdock/2013.1/src/exe/rbdock.cxx#4 $)

>  <Rbt.Library>
libRbt.so (2013.1, Build901 2013/11/27)

>  <Rbt.Parameter_File>
dock.prm

>  <Rbt.Receptor>
rdock.prm

>  <SCORE>
-17.5959

>  <SCORE.INTER>
-12.2081

>  <SCORE.INTER.CONST>
1

>  <SCORE.INTER.POLAR>
-0.954738

>  <SCORE.INTER.REPUL>
0.0269499

>  <SCORE.INTER.ROT>
12

>  <SCORE.INTER.VDW>
-26.4968

>  <SCORE.INTER.norm>
-0.313029

>  <SCORE.INTRA>
-5.38772

>  <SCORE.INTRA.DIHEDRAL>
-6.05037

>  <SCORE.INTRA.DIHEDRAL.0>
15.348

>  <SCORE.INTRA.POLAR>
0

>  <SCORE.INTRA.POLAR.0>
0

>  <SCORE.INTRA.REPUL>
0

>  <SCORE.INTRA.REPUL.0>
0

>  <SCORE.INTRA.VDW>
-2.36253

>  <SCORE.INTRA.VDW.0>
-3.74855

>  <SCORE.INTRA.norm>
-0.138147

>  <SCORE.RESTR>
0

>  <SCORE.RESTR.CAVITY>
0

>  <SCORE.RESTR.norm>
0

>  <SCORE.SYSTEM>
0

>  <SCORE.SYSTEM.CONST>
0

>  <SCORE.SYSTEM.DIHEDRAL>
0

>  <SCORE.SYSTEM.norm>
0

>  <SCORE.heavy>
39

>  <SCORE.norm>
-0.451176

$$$$
ligands/mol2.pdb
  rDOCK(R)          3D
libRbt.so/2013.1/901 2013/11/27
 45 48  0  0  0  0  0  0  0  0999 V2000
   -7.8500   10.6357   76.4407 N   0  0  0  0  0  0
   -6.6157    9.5040   76.2089 S   0  0  0  0  0  0
   -5.5623   10.1119   75.4412 O   0  0  0  0  0  0
   -6.3580    8.9272   77.5178 O   0  0  0  0  0  0
   -7.3815    8.2586   75.1993 C   0  0  0  0  0  0
   -7.1913    6.8980   75.4625 C   0  0  0  0  0  0
   -7.9286    5.9465   74.7468 C   0  0  0  0  0  0
   -8.8656    6.3426   73.7772 C   0  0  0  0  0  0
   -9.7872    5.3096   73.1303 C   0  0  0  0  0  0
  -10.8534    5.8387   72.1711 C   0  0  0  0  0  0
  -12.0652    6.3780   72.6292 C   0  0  0  0  0  0
  -13.0104    6.8951   71.7434 C   0  0  0  0  0  0
  -12.7451    6.9240   70.3791 C   0  0  0  0  0  0
  -11.5605    6.3790   69.8855 C   0  0  0  0  0  0
  -11.3229    6.5020   68.4983 N   0  0  0  0  0  0
  -10.4691    7.4329   67.9362 C   0  0  0  0  0  0
   -9.2482    7.3921   67.9688 O   0  0  0  0  0  0
  -11.2106    8.4318   67.3228 N   0  0  0  0  0  0
  -10.6795    9.3474   66.3948 C   0  0  0  0  0  0
  -11.1890   10.6473   66.3860 C   0  0  0  0  0  0
  -10.7252   11.5859   65.4572 C   0  0  0  0  0  0
  -11.1931   13.0192   65.4822 C   0  0  0  0  0  0
  -10.0805   14.0772   65.3993 C   0  0  0  0  0  0
   -9.9026   14.8637   66.6165 N   0  0  0  0  0  0
   -8.6776   15.4154   66.9428 C   0  0  0  0  0  0
   -7.6795   15.2432   66.2432 O   0  0  0  0  0  0
   -8.6254   16.1544   68.2977 C   0  0  0  0  0  0
   -9.3887   17.4878   68.2893 C   0  0  0  0  0  0
  -10.8964   17.4196   68.5667 C   0  0  0  0  0  0
  -11.3622   16.3621   69.5706 C   0  0  0  0  0  0
  -11.3601   16.9113   70.8886 O   0  0  0  0  0  0
  -10.5332   15.0838   69.5951 C   0  0  0  0  0  0
   -9.0294   15.3320   69.5213 C   0  0  0  0  0  0
   -9.7626   11.1537   64.5493 C   0  0  0  0  0  0
   -9.2530    9.9005   64.5208 N   0  0  0  0  0  0
   -9.7145    9.0252   65.4491 C   0  0  0  0  0  0
  -10.6223    5.8254   70.7753 C   0  0  0  0  0  0
   -8.9910    7.7115   73.4854 C   0  0  0  0  0  0
   -8.2551    8.6657   74.1944 C   0  0  0  0  0  0
   -8.7461   10.2389   76.7255 H   0  0  0  0  0  0
   -7.9193   11.2755   75.6350 H   0  0  0  0  0  0
  -11.3226    5.6362   67.9792 H   0  0  0  0  0  0
  -11.9567    8.7718   67.9103 H   0  0  0  0  0  0
  -10.7317   15.2413   67.0576 H   0  0  0  0  0  0
  -12.0293   17.6187   70.8973 H   0  0  0  0  0  0
  1  2  1  0  0  0
  1 40  1  0  0  0
  1 41  1  0  0  0
  2  3  2  0  0  0
  2  4  2  0  0  0
  2  5  1  0  0  0
  5  6  2  0  0  0
  5 39  1  0  0  0
  6  7  1  0  0  0
  7  8  2  0  0  0
  8  9  1  0  0  0
  8 38  1  0  0  0
  9 10  1  0  0  0
 10 11  2  0  0  0
 10 37  1  0  0  0
 11 12  1  0  0  0
 12 13  2  0  0  0
 13 14  1  0  0  0
 14 15  1  0  0  0
 14 37  2  0  0  0
 15 16  1  0  0  0
 15 42  1  0  0  0
 16 17  2  0  0  0
 16 18  1  0  0  0
 18 19  1  0  0  0
 18 43  1  0  0  0
 19 20  2  0  0  0
 19 36  1  0  0  0
 20 21  1  0  0  0
 21 22  1  0  0  0
 21 34  2  0  0  0
 22 23  1  0  0  0
 23 24  1  0  0  0
 24 25  1  0  0  0
 24 44  1  0  0  0
 25 26  2  0  0  0
 25 27  1  0  0  0
 27 28  1  0  0  0
 27 33  1  0  0  0
 28 29  1  0  0  0
 29 30  1  0  0  0
 30 31  1  0  0  0
 30 32  1  0  0  0
 31 45  1  0  0  0
 32 33  1  0  0  0
 34 35  1  0  0  0
 35 36  2  0  0  0
 38 39  2  0  0  0
M  END
>  <AUTHOR>
    GENERATED BY OPEN BABEL 2.3.2

>  <CHROM.1>
162.78363504,-136.53623665,175.13390889,-81.09318365,101.68398492,73.66860004
-164.16532649,-145.78635349,131.75526523,-112.18785355,152.18641376,-71.49532412
64.77644962,-9.55303274,10.47578029,70.31595429,-1.13517506,-1.18714430,-0.43053441

>  <COMPND>
    UNNAMED

>  <MASTER>
        0    0    0    0    0    0    0    0   72    0   72    0

>  <Name>
ligands/mol2.pdb

>  <RI>
3.61506e+07

>  <Rbt.Current_Directory>
/home/rodrigo/Desktop/Rodrigo/Proyectos/test_OCONDOR/OCONDOR

>  <Rbt.Executable>
rbdock ($Id: //depot/dev/client3/rdock/2013.1/src/exe/rbdock.cxx#4 $)

>  <Rbt.Library>
libRbt.so (2013.1, Build901 2013/11/27)

>  <Rbt.Parameter_File>
dock.prm

>  <Rbt.Receptor>
rdock.prm

>  <SCORE>
-13.8037

>  <SCORE.INTER>
-12.1167

>  <SCORE.INTER.CONST>
1

>  <SCORE.INTER.POLAR>
-2.09648

>  <SCORE.INTER.REPUL>
0.144563

>  <SCORE.INTER.ROT>
12

>  <SCORE.INTER.VDW>
-23.1115

>  <SCORE.INTER.norm>
-0.310684

>  <SCORE.INTRA>
-1.687

>  <SCORE.INTRA.DIHEDRAL>
-2.60238

>  <SCORE.INTRA.DIHEDRAL.0>
15.348

>  <SCORE.INTRA.POLAR>
0

>  <SCORE.INTRA.POLAR.0>
0

>  <SCORE.INTRA.REPUL>
0

>  <SCORE.INTRA.REPUL.0>
0

>  <SCORE.INTRA.VDW>
-0.385813

>  <SCORE.INTRA.VDW.0>
-3.74855

>  <SCORE.INTRA.norm>
-0.0432565

>  <SCORE.RESTR>
0

>  <SCORE.RESTR.CAVITY>
0

>  <SCORE.RESTR.norm>
0

>  <SCORE.SYSTEM>
0

>  <SCORE.SYSTEM.CONST>
0

>  <SCORE.SYSTEM.DIHEDRAL>
0

>  <SCORE.SYSTEM.norm>
0

>  <SCORE.heavy>
39

>  <SCORE.norm>
-0.353941

$$$$
ligands/mol2.pdb
  rDOCK(R)          3D
libRbt.so/2013.1/901 2013/11/27
 45 48  0  0  0  0  0  0  0  0999 V2000
   -6.6010    7.6344   74.6276 N   0  0  0  0  0  0
   -8.0307    8.0200   75.4434 S   0  0  0  0  0  0
   -8.2527    7.0496   76.4815 O   0  0  0  0  0  0
   -7.9429    9.4391   75.7447 O   0  0  0  0  0  0
   -9.2858    7.7963   74.2059 C   0  0  0  0  0  0
   -9.2075    8.4497   72.9716 C   0  0  0  0  0  0
  -10.1272    8.1344   71.9638 C   0  0  0  0  0  0
  -11.1189    7.1610   72.1732 C   0  0  0  0  0  0
  -12.0018    6.6999   71.0144 C   0  0  0  0  0  0
  -11.2890    6.2278   69.7473 C   0  0  0  0  0  0
  -10.7082    4.9540   69.6506 C   0  0  0  0  0  0
  -10.0978    4.5221   68.4732 C   0  0  0  0  0  0
  -10.0928    5.3404   67.3495 C   0  0  0  0  0  0
  -10.6424    6.6202   67.4141 C   0  0  0  0  0  0
  -10.6655    7.3732   66.2190 N   0  0  0  0  0  0
   -9.9153    8.5147   66.0057 C   0  0  0  0  0  0
   -8.6967    8.5633   65.9281 O   0  0  0  0  0  0
  -10.7589    9.6098   65.8917 N   0  0  0  0  0  0
  -10.7028   10.5384   64.8352 C   0  0  0  0  0  0
  -11.3159   11.7798   65.0156 C   0  0  0  0  0  0
  -11.3248   12.7245   63.9830 C   0  0  0  0  0  0
  -11.9012   14.1039   64.1798 C   0  0  0  0  0  0
  -10.8795   15.2041   64.5113 C   0  0  0  0  0  0
  -10.1164   14.9715   65.7340 N   0  0  0  0  0  0
  -10.4451   15.6056   66.9178 C   0  0  0  0  0  0
  -11.3704   16.4145   66.9873 O   0  0  0  0  0  0
   -9.5005   15.3194   68.1054 C   0  0  0  0  0  0
   -9.5115   13.8475   68.5460 C   0  0  0  0  0  0
   -8.5813   12.8940   67.7841 C   0  0  0  0  0  0
   -7.2396   13.4679   67.3221 C   0  0  0  0  0  0
   -6.2549   13.2758   68.3381 O   0  0  0  0  0  0
   -7.2586   14.9486   66.9629 C   0  0  0  0  0  0
   -8.0593   15.8023   67.9419 C   0  0  0  0  0  0
  -10.7185   12.3568   62.7852 C   0  0  0  0  0  0
  -10.1239   11.1604   62.5701 N   0  0  0  0  0  0
  -10.1198   10.2789   63.6015 C   0  0  0  0  0  0
  -11.2269    7.0697   68.6118 C   0  0  0  0  0  0
  -11.2174    6.5661   73.4426 C   0  0  0  0  0  0
  -10.3040    6.8794   74.4536 C   0  0  0  0  0  0
   -6.3188    8.3100   73.9167 H   0  0  0  0  0  0
   -6.6222    6.6613   74.2869 H   0  0  0  0  0  0
  -10.7772    6.8379   65.3703 H   0  0  0  0  0  0
  -11.0438    9.9702   66.7897 H   0  0  0  0  0  0
   -9.5430   14.1385   65.7791 H   0  0  0  0  0  0
   -5.4078   13.5806   67.9669 H   0  0  0  0  0  0
  1  2  1  0  0  0
  1 40  1  0  0  0
  1 41  1  0  0  0
  2  3  2  0  0  0
  2  4  2  0  0  0
  2  5  1  0  0  0
  5  6  2  0  0  0
  5 39  1  0  0  0
  6  7  1  0  0  0
  7  8  2  0  0  0
  8  9  1  0  0  0
  8 38  1  0  0  0
  9 10  1  0  0  0
 10 11  2  0  0  0
 10 37  1  0  0  0
 11 12  1  0  0  0
 12 13  2  0  0  0
 13 14  1  0  0  0
 14 15  1  0  0  0
 14 37  2  0  0  0
 15 16  1  0  0  0
 15 42  1  0  0  0
 16 17  2  0  0  0
 16 18  1  0  0  0
 18 19  1  0  0  0
 18 43  1  0  0  0
 19 20  2  0  0  0
 19 36  1  0  0  0
 20 21  1  0  0  0
 21 22  1  0  0  0
 21 34  2  0  0  0
 22 23  1  0  0  0
 23 24  1  0  0  0
 24 25  1  0  0  0
 24 44  1  0  0  0
 25 26  2  0  0  0
 25 27  1  0  0  0
 27 28  1  0  0  0
 27 33  1  0  0  0
 28 29  1  0  0  0
 29 30  1  0  0  0
 30 31  1  0  0  0
 30 32  1  0  0  0
 31 45  1  0  0  0
 32 33  1  0  0  0
 34 35  1  0  0  0
 35 36  2  0  0  0
 38 39  2  0  0  0
M  END
>  <AUTHOR>
    GENERATED BY OPEN BABEL 2.3.2

>  <CHROM.1>
-175.44041295,-54.25526597,52.73417649,78.32607757,-112.39314636,66.36935367
-129.30887663,-161.81327073,97.10955415,-59.80443683,-100.34002979,-64.27407066
174.91442152,-9.70689491,10.18216766,68.83808280,-1.33022956,-1.21893087
-0.70041079

>  <COMPND>
    UNNAMED

>  <MASTER>
        0    0    0    0    0    0    0    0   72    0   72    0

>  <Name>
ligands/mol2.pdb

>  <RI>
3.61506e+07

>  <Rbt.Current_Directory>
/home/rodrigo/Desktop/Rodrigo/Proyectos/test_OCONDOR/OCONDOR

>  <Rbt.Executable>
rbdock ($Id: //depot/dev/client3/rdock/2013.1/src/exe/rbdock.cxx#4 $)

>  <Rbt.Library>
libRbt.so (2013.1, Build901 2013/11/27)

>  <Rbt.Parameter_File>
dock.prm

>  <Rbt.Receptor>
rdock.prm

>  <SCORE>
-16.509

>  <SCORE.INTER>
-10.8829

>  <SCORE.INTER.CONST>
1

>  <SCORE.INTER.POLAR>
-0.46017

>  <SCORE.INTER.REPUL>
0.041562

>  <SCORE.INTER.ROT>
12

>  <SCORE.INTER.VDW>
-26.9261

>  <SCORE.INTER.norm>
-0.279049

>  <SCORE.INTRA>
-5.62608

>  <SCORE.INTRA.DIHEDRAL>
-8.11706

>  <SCORE.INTRA.DIHEDRAL.0>
15.348

>  <SCORE.INTRA.POLAR>
0

>  <SCORE.INTRA.POLAR.0>
0

>  <SCORE.INTRA.REPUL>
0

>  <SCORE.INTRA.REPUL.0>
0

>  <SCORE.INTRA.VDW>
-1.56755

>  <SCORE.INTRA.VDW.0>
-3.74855

>  <SCORE.INTRA.norm>
-0.144259

>  <SCORE.RESTR>
0

>  <SCORE.RESTR.CAVITY>
0

>  <SCORE.RESTR.norm>
0

>  <SCORE.SYSTEM>
0

>  <SCORE.SYSTEM.CONST>
0

>  <SCORE.SYSTEM.DIHEDRAL>
0

>  <SCORE.SYSTEM.norm>
0

>  <SCORE.heavy>
39

>  <SCORE.norm>
-0.423308

$$$$
ligands/mol2.pdb
  rDOCK(R)          3D
libRbt.so/2013.1/901 2013/11/27
 45 48  0  0  0  0  0  0  0  0999 V2000
   -4.4826   18.4279   67.8973 N   0  0  0  0  0  0
   -4.4182   17.4300   66.5340 S   0  0  0  0  0  0
   -4.0225   18.2169   65.3971 O   0  0  0  0  0  0
   -3.6615   16.2570   66.9389 O   0  0  0  0  0  0
   -6.1100   16.9404   66.3002 C   0  0  0  0  0  0
   -6.5760   15.7070   66.7670 C   0  0  0  0  0  0
   -7.9446   15.4171   66.7041 C   0  0  0  0  0  0
   -8.8560   16.3549   66.1898 C   0  0  0  0  0  0
  -10.3596   16.1007   66.2877 C   0  0  0  0  0  0
  -10.8856   14.8119   65.6560 C   0  0  0  0  0  0
  -11.0802   14.6867   64.2719 C   0  0  0  0  0  0
  -11.5210   13.4904   63.7062 C   0  0  0  0  0  0
  -11.7360   12.3766   64.5096 C   0  0  0  0  0  0
  -11.5724   12.4690   65.8912 C   0  0  0  0  0  0
  -11.7406   11.2837   66.6413 N   0  0  0  0  0  0
  -10.7618   10.7267   67.4433 C   0  0  0  0  0  0
   -9.6316   11.1648   67.5980 O   0  0  0  0  0  0
  -11.2570    9.5838   68.0537 N   0  0  0  0  0  0
  -10.5675    8.3575   68.1027 C   0  0  0  0  0  0
   -9.2889    8.3423   68.6634 C   0  0  0  0  0  0
   -8.5435    7.1583   68.7006 C   0  0  0  0  0  0
   -7.1981    7.0934   69.3784 C   0  0  0  0  0  0
   -6.7905    8.3552   70.1567 C   0  0  0  0  0  0
   -7.6428    8.6603   71.3022 N   0  0  0  0  0  0
   -7.4361    8.0617   72.5312 C   0  0  0  0  0  0
   -6.5500    7.2255   72.7067 O   0  0  0  0  0  0
   -8.4642    8.4251   73.6246 C   0  0  0  0  0  0
   -9.8929    7.9723   73.2861 C   0  0  0  0  0  0
  -10.2604    6.5267   73.6467 C   0  0  0  0  0  0
   -9.6397    5.9597   74.9259 C   0  0  0  0  0  0
  -10.4925    6.2293   76.0388 O   0  0  0  0  0  0
   -8.2511    6.4899   75.2612 C   0  0  0  0  0  0
   -8.1054    7.9937   75.0465 C   0  0  0  0  0  0
   -9.1283    6.0259   68.1409 C   0  0  0  0  0  0
  -10.3595    6.0045   67.5801 N   0  0  0  0  0  0
  -11.0580    7.1678   67.5801 C   0  0  0  0  0  0
  -11.1618   13.6852   66.4661 C   0  0  0  0  0  0
   -8.3557   17.5597   65.6674 C   0  0  0  0  0  0
   -6.9899   17.8532   65.7245 C   0  0  0  0  0  0
   -5.1382   19.2067   67.8265 H   0  0  0  0  0  0
   -3.5357   18.7110   68.1916 H   0  0  0  0  0  0
  -12.6627   11.1406   67.0265 H   0  0  0  0  0  0
  -12.2633    9.5301   68.0092 H   0  0  0  0  0  0
   -8.1869    9.5132   71.2694 H   0  0  0  0  0  0
  -10.1025    5.7737   76.8060 H   0  0  0  0  0  0
  1  2  1  0  0  0
  1 40  1  0  0  0
  1 41  1  0  0  0
  2  3  2  0  0  0
  2  4  2  0  0  0
  2  5  1  0  0  0
  5  6  2  0  0  0
  5 39  1  0  0  0
  6  7  1  0  0  0
  7  8  2  0  0  0
  8  9  1  0  0  0
  8 38  1  0  0  0
  9 10  1  0  0  0
 10 11  2  0  0  0
 10 37  1  0  0  0
 11 12  1  0  0  0
 12 13  2  0  0  0
 13 14  1  0  0  0
 14 15  1  0  0  0
 14 37  2  0  0  0
 15 16  1  0  0  0
 15 42  1  0  0  0
 16 17  2  0  0  0
 16 18  1  0  0  0
 18 19  1  0  0  0
 18 43  1  0  0  0
 19 20  2  0  0  0
 19 36  1  0  0  0
 20 21  1  0  0  0
 21 22  1  0  0  0
 21 34  2  0  0  0
 22 23  1  0  0  0
 23 24  1  0  0  0
 24 25  1  0  0  0
 24 44  1  0  0  0
 25 26  2  0  0  0
 25 27  1  0  0  0
 27 28  1  0  0  0
 27 33  1  0  0  0
 28 29  1  0  0  0
 29 30  1  0  0  0
 30 31  1  0  0  0
 30 32  1  0  0  0
 31 45  1  0  0  0
 32 33  1  0  0  0
 34 35  1  0  0  0
 35 36  2  0  0  0
 38 39  2  0  0  0
M  END
>  <AUTHOR>
    GENERATED BY OPEN BABEL 2.3.2

>  <CHROM.1>
59.81659100,-98.18735229,-57.31000530,-78.41276583,120.60301079,-0.98117403
132.79668086,56.40199556,6.92826733,64.46428374,84.02874630,63.10858589,174.36147015
-8.57879334,11.53470326,68.67203643,-1.34008561,0.67509285,2.40103681

>  <COMPND>
    UNNAMED

>  <MASTER>
        0    0    0    0    0    0    0    0   72    0   72    0

>  <Name>
ligands/mol2.pdb

>  <RI>
3.61506e+07

>  <Rbt.Current_Directory>
/home/rodrigo/Desktop/Rodrigo/Proyectos/test_OCONDOR/OCONDOR

>  <Rbt.Executable>
rbdock ($Id: //depot/dev/client3/rdock/2013.1/src/exe/rbdock.cxx#4 $)

>  <Rbt.Library>
libRbt.so (2013.1, Build901 2013/11/27)

>  <Rbt.Parameter_File>
dock.prm

>  <Rbt.Receptor>
rdock.prm

>  <SCORE>
-13.1404

>  <SCORE.INTER>
-9.6598

>  <SCORE.INTER.CONST>
1

>  <SCORE.INTER.POLAR>
-1.73425

>  <SCORE.INTER.REPUL>
0

>  <SCORE.INTER.ROT>
12

>  <SCORE.INTER.VDW>
-21.1634

>  <SCORE.INTER.norm>
-0.247687

>  <SCORE.INTRA>
-3.48057

>  <SCORE.INTRA.DIHEDRAL>
-7.26986

>  <SCORE.INTRA.DIHEDRAL.0>
15.348

>  <SCORE.INTRA.POLAR>
0

>  <SCORE.INTRA.POLAR.0>
0

>  <SCORE.INTRA.REPUL>
0

>  <SCORE.INTRA.REPUL.0>
0

>  <SCORE.INTRA.VDW>
0.154361

>  <SCORE.INTRA.VDW.0>
-3.74855

>  <SCORE.INTRA.norm>
-0.0892454

>  <SCORE.RESTR>
0

>  <SCORE.RESTR.CAVITY>
0

>  <SCORE.RESTR.norm>
0

>  <SCORE.SYSTEM>
0

>  <SCORE.SYSTEM.CONST>
0

>  <SCORE.SYSTEM.DIHEDRAL>
0

>  <SCORE.SYSTEM.norm>
0

>  <SCORE.heavy>
39

>  <SCORE.norm>
-0.336933

$$$$
ligands/mol2.pdb
  rDOCK(R)          3D
libRbt.so/2013.1/901 2013/11/27
 45 48  0  0  0  0  0  0  0  0999 V2000
   -5.1802   22.3152   66.6048 N   0  0  0  0  0  0
   -4.2099   20.9395   66.7608 S   0  0  0  0  0  0
   -3.2416   20.9274   65.6974 O   0  0  0  0  0  0
   -3.7992   20.9020   68.1545 O   0  0  0  0  0  0
   -5.3444   19.6003   66.4847 C   0  0  0  0  0  0
   -5.5970   18.6509   67.4803 C   0  0  0  0  0  0
   -6.6074   17.7006   67.2880 C   0  0  0  0  0  0
   -7.3784   17.6975   66.1131 C   0  0  0  0  0  0
   -8.5888   16.7732   65.9891 C   0  0  0  0  0  0
   -9.5637   16.7488   67.1664 C   0  0  0  0  0  0
   -9.6299   17.7946   68.0998 C   0  0  0  0  0  0
  -10.5537   17.7773   69.1447 C   0  0  0  0  0  0
  -11.4633   16.7318   69.2542 C   0  0  0  0  0  0
  -11.4142   15.6656   68.3571 C   0  0  0  0  0  0
  -12.4093   14.6707   68.4829 N   0  0  0  0  0  0
  -12.5302   13.8263   69.5710 C   0  0  0  0  0  0
  -13.1995   14.0420   70.5704 O   0  0  0  0  0  0
  -11.7709   12.6850   69.3593 N   0  0  0  0  0  0
  -11.7132   11.6019   70.2565 C   0  0  0  0  0  0
  -10.5422   10.8427   70.2987 C   0  0  0  0  0  0
  -10.4464    9.7308   71.1433 C   0  0  0  0  0  0
   -9.1650    8.9468   71.2741 C   0  0  0  0  0  0
   -9.0666    7.6924   70.3904 C   0  0  0  0  0  0
   -9.9706    6.6115   70.7726 N   0  0  0  0  0  0
   -9.8449    5.9659   71.9887 C   0  0  0  0  0  0
   -8.9512    6.2492   72.7863 O   0  0  0  0  0  0
  -10.8233    4.7935   72.2188 C   0  0  0  0  0  0
  -10.1726    3.4154   72.0236 C   0  0  0  0  0  0
   -9.4338    2.8256   73.2324 C   0  0  0  0  0  0
  -10.0296    3.1204   74.6113 C   0  0  0  0  0  0
  -10.9706    2.1046   74.9596 O   0  0  0  0  0  0
  -10.7277    4.4688   74.7396 C   0  0  0  0  0  0
  -11.5979    4.8207   73.5364 C   0  0  0  0  0  0
  -11.5675    9.4195   71.9074 C   0  0  0  0  0  0
  -12.7220   10.1249   71.8856 N   0  0  0  0  0  0
  -12.7690   11.2067   71.0680 C   0  0  0  0  0  0
  -10.4597   15.6652   67.3241 C   0  0  0  0  0  0
   -7.0621   18.6196   65.1009 C   0  0  0  0  0  0
   -6.0522   19.5686   65.2860 C   0  0  0  0  0  0
   -4.8061   23.1548   67.0482 H   0  0  0  0  0  0
   -6.1559   22.1095   66.8675 H   0  0  0  0  0  0
  -13.3104   14.9057   68.0930 H   0  0  0  0  0  0
  -10.9325   12.8741   68.8313 H   0  0  0  0  0  0
  -10.8518    6.5392   70.2798 H   0  0  0  0  0  0
  -10.4761    1.2665   74.9953 H   0  0  0  0  0  0
  1  2  1  0  0  0
  1 40  1  0  0  0
  1 41  1  0  0  0
  2  3  2  0  0  0
  2  4  2  0  0  0
  2  5  1  0  0  0
  5  6  2  0  0  0
  5 39  1  0  0  0
  6  7  1  0  0  0
  7  8  2  0  0  0
  8  9  1  0  0  0
  8 38  1  0  0  0
  9 10  1  0  0  0
 10 11  2  0  0  0
 10 37  1  0  0  0
 11 12  1  0  0  0
 12 13  2  0  0  0
 13 14  1  0  0  0
 14 15  1  0  0  0
 14 37  2  0  0  0
 15 16  1  0  0  0
 15 42  1  0  0  0
 16 17  2  0  0  0
 16 18  1  0  0  0
 18 19  1  0  0  0
 18 43  1  0  0  0
 19 20  2  0  0  0
 19 36  1  0  0  0
 20 21  1  0  0  0
 21 22  1  0  0  0
 21 34  2  0  0  0
 22 23  1  0  0  0
 23 24  1  0  0  0
 24 25  1  0  0  0
 24 44  1  0  0  0
 25 26  2  0  0  0
 25 27  1  0  0  0
 27 28  1  0  0  0
 27 33  1  0  0  0
 28 29  1  0  0  0
 29 30  1  0  0  0
 30 31  1  0  0  0
 30 32  1  0  0  0
 31 45  1  0  0  0
 32 33  1  0  0  0
 34 35  1  0  0  0
 35 36  2  0  0  0
 38 39  2  0  0  0
M  END
>  <AUTHOR>
    GENERATED BY OPEN BABEL 2.3.2

>  <CHROM.1>
-86.33870908,-118.25562097,47.36904738,20.68023628,-66.04732953,90.54952127
-177.66309145,-150.78579846,-96.05861117,-68.91033352,-64.57354094,102.30690595
61.67529064,-9.19234024,12.86359521,69.62660742,-1.29203994,-0.06301224,2.75641593

>  <COMPND>
    UNNAMED

>  <MASTER>
        0    0    0    0    0    0    0    0   72    0   72    0

>  <Name>
ligands/mol2.pdb

>  <RI>
3.61506e+07

>  <Rbt.Current_Directory>
/home/rodrigo/Desktop/Rodrigo/Proyectos/test_OCONDOR/OCONDOR

>  <Rbt.Executable>
rbdock ($Id: //depot/dev/client3/rdock/2013.1/src/exe/rbdock.cxx#4 $)

>  <Rbt.Library>
libRbt.so (2013.1, Build901 2013/11/27)

>  <Rbt.Parameter_File>
dock.prm

>  <Rbt.Receptor>
rdock.prm

>  <SCORE>
-12.5072

>  <SCORE.INTER>
-9.64323

>  <SCORE.INTER.CONST>
1

>  <SCORE.INTER.POLAR>
-1.69443

>  <SCORE.INTER.REPUL>
0.0109407

>  <SCORE.INTER.ROT>
12

>  <SCORE.INTER.VDW>
-21.3369

>  <SCORE.INTER.norm>
-0.247262

>  <SCORE.INTRA>
-2.86399

>  <SCORE.INTRA.DIHEDRAL>
-4.33308

>  <SCORE.INTRA.DIHEDRAL.0>
15.348

>  <SCORE.INTRA.POLAR>
0

>  <SCORE.INTRA.POLAR.0>
0

>  <SCORE.INTRA.REPUL>
0

>  <SCORE.INTRA.REPUL.0>
0

>  <SCORE.INTRA.VDW>
-0.697449

>  <SCORE.INTRA.VDW.0>
-3.74855

>  <SCORE.INTRA.norm>
-0.0734356

>  <SCORE.RESTR>
0

>  <SCORE.RESTR.CAVITY>
0

>  <SCORE.RESTR.norm>
0

>  <SCORE.SYSTEM>
0

>  <SCORE.SYSTEM.CONST>
0

>  <SCORE.SYSTEM.DIHEDRAL>
0

>  <SCORE.SYSTEM.norm>
0

>  <SCORE.heavy>
39

>  <SCORE.norm>
-0.320698

$$$$
