ligands/mol6.pdb
  rDOCK(R)          3D
libRbt.so/2013.1/901 2013/11/27
 49 53  0  0  0  0  0  0  0  0999 V2000
  -14.5991   13.3777   72.4266 N   0  0  0  0  0  0
  -14.0831   14.9714   72.5767 S   0  0  0  0  0  0
  -15.2394   15.7875   72.2067 O   0  0  0  0  0  0
  -13.4591   15.0583   73.8554 O   0  0  0  0  0  0
  -12.8717   15.1212   71.2981 C   0  0  0  0  0  0
  -12.6515   14.0583   70.4210 C   0  0  0  0  0  0
  -11.6447   14.1596   69.4568 C   0  0  0  0  0  0
  -10.8584   15.3180   69.3593 C   0  0  0  0  0  0
   -9.7635   15.4061   68.3202 C   0  0  0  0  0  0
   -8.6970   14.3402   68.4399 C   0  0  0  0  0  0
   -7.3430   14.7065   68.4539 C   0  0  0  0  0  0
   -6.3404   13.7413   68.5600 C   0  0  0  0  0  0
   -6.6779   12.4002   68.7084 C   0  0  0  0  0  0
   -8.0187   12.0257   68.7343 C   0  0  0  0  0  0
   -8.3763   10.6805   68.8833 N   0  0  0  0  0  0
   -8.8913   10.1588   70.0528 C   0  0  0  0  0  0
   -8.2944   10.0592   71.1207 O   0  0  0  0  0  0
  -10.2193    9.7919   69.9726 N   0  0  0  0  0  0
  -10.6966    8.5894   69.4214 C   0  0  0  0  0  0
  -11.3882    7.6422   70.1960 C   0  0  0  0  0  0
  -11.8171    6.4816   69.5298 C   0  0  0  0  0  0
  -11.5297    6.2928   68.1894 C   0  0  0  0  0  0
  -10.9213    7.2132   67.4259 N   0  0  0  0  0  0
  -10.5207    8.3377   68.0540 C   0  0  0  0  0  0
  -11.6942    7.8016   71.6925 C   0  0  0  0  0  0
  -10.4858    8.3163   72.5346 C   0  0  0  0  0  0
   -9.2986    7.4601   72.5038 N   0  0  0  0  0  0
   -8.2656    7.5546   73.4261 C   0  0  0  0  0  0
   -7.4344    8.4564   73.4188 O   0  0  0  0  0  0
   -8.3023    6.4515   74.5031 C   0  0  0  0  0  0
   -9.6226    6.4023   75.2991 C   0  0  0  0  0  0
  -10.7245    5.5084   74.7184 C   0  0  0  0  0  0
  -10.2018    4.1486   74.2694 C   0  0  0  0  0  0
   -9.7865    3.4280   75.4295 O   0  0  0  0  0  0
   -9.0326    4.3160   73.3042 C   0  0  0  0  0  0
   -7.8816    5.0751   73.9627 C   0  0  0  0  0  0
  -12.9647    8.6638   71.9542 C   0  0  0  0  0  0
  -14.2040    7.9895   71.4142 C   0  0  0  0  0  0
  -14.7275    6.7228   72.0324 C   0  0  0  0  0  0
  -15.4742    8.0101   72.2272 C   0  0  0  0  0  0
   -9.0270   12.9809   68.5608 C   0  0  0  0  0  0
  -11.1019   16.3818   70.2449 C   0  0  0  0  0  0
  -12.1052   16.2858   71.2112 C   0  0  0  0  0  0
  -15.1010   13.2617   71.5484 H   0  0  0  0  0  0
  -15.1572   13.1340   73.2483 H   0  0  0  0  0  0
   -8.6225   10.1813   68.0421 H   0  0  0  0  0  0
  -10.7789   10.2197   70.7079 H   0  0  0  0  0  0
   -9.3959    6.5668   72.0421 H   0  0  0  0  0  0
  -10.5686    3.2798   75.9881 H   0  0  0  0  0  0
  1  2  1  0  0  0
  1 44  1  0  0  0
  1 45  1  0  0  0
  2  3  2  0  0  0
  2  4  2  0  0  0
  2  5  1  0  0  0
  5  6  2  0  0  0
  5 43  1  0  0  0
  6  7  1  0  0  0
  7  8  2  0  0  0
  8  9  1  0  0  0
  8 42  1  0  0  0
  9 10  1  0  0  0
 10 11  2  0  0  0
 10 41  1  0  0  0
 11 12  1  0  0  0
 12 13  2  0  0  0
 13 14  1  0  0  0
 14 15  1  0  0  0
 14 41  2  0  0  0
 15 16  1  0  0  0
 15 46  1  0  0  0
 16 17  2  0  0  0
 16 18  1  0  0  0
 18 19  1  0  0  0
 18 47  1  0  0  0
 19 20  2  0  0  0
 19 24  1  0  0  0
 20 21  1  0  0  0
 20 25  1  0  0  0
 21 22  2  0  0  0
 22 23  1  0  0  0
 23 24  2  0  0  0
 25 26  1  0  0  0
 25 37  1  0  0  0
 26 27  1  0  0  0
 27 28  1  0  0  0
 27 48  1  0  0  0
 28 29  2  0  0  0
 28 30  1  0  0  0
 30 31  1  0  0  0
 30 36  1  0  0  0
 31 32  1  0  0  0
 32 33  1  0  0  0
 33 34  1  0  0  0
 33 35  1  0  0  0
 34 49  1  0  0  0
 35 36  1  0  0  0
 37 38  1  0  0  0
 38 39  1  0  0  0
 38 40  1  0  0  0
 39 40  1  0  0  0
 42 43  2  0  0  0
M  END
>  <AUTHOR>
    GENERATED BY OPEN BABEL 2.3.2

>  <CHROM.1>
45.84690964,4.54443508,-59.42678915,-129.38865014,106.01415485,-66.01321061
80.80821251,117.13957073,-44.76166089,-59.93171266,64.53699078,-163.24915112
-74.79346050,-57.03533641,63.36127029,67.98360954,-10.77434341,10.27310700
71.25968219,1.74584830,0.51094012,-0.36907231

>  <COMPND>
    UNNAMED

>  <MASTER>
        0    0    0    0    0    0    0    0   82    0   82    0

>  <Name>
ligands/mol6.pdb

>  <RI>
2.95051e+07

>  <Rbt.Current_Directory>
/home/rochoa/Projects/OCONDOR

>  <Rbt.Executable>
rbdock ($Id: //depot/dev/client3/rdock/2013.1/src/exe/rbdock.cxx#4 $)

>  <Rbt.Library>
libRbt.so (2013.1, Build901 2013/11/27)

>  <Rbt.Parameter_File>
dock.prm

>  <Rbt.Receptor>
rdock.prm

>  <SCORE>
-18.6159

>  <SCORE.INTER>
-14.0651

>  <SCORE.INTER.CONST>
1

>  <SCORE.INTER.POLAR>
-0.762903

>  <SCORE.INTER.REPUL>
0.0402533

>  <SCORE.INTER.ROT>
15

>  <SCORE.INTER.VDW>
-32.0725

>  <SCORE.INTER.norm>
-0.327095

>  <SCORE.INTRA>
-4.55076

>  <SCORE.INTRA.DIHEDRAL>
-2.75304

>  <SCORE.INTRA.DIHEDRAL.0>
15.1377

>  <SCORE.INTRA.POLAR>
0

>  <SCORE.INTRA.POLAR.0>
0

>  <SCORE.INTRA.REPUL>
0

>  <SCORE.INTRA.REPUL.0>
0

>  <SCORE.INTRA.VDW>
-3.17424

>  <SCORE.INTRA.VDW.0>
-4.46419

>  <SCORE.INTRA.norm>
-0.105832

>  <SCORE.RESTR>
0

>  <SCORE.RESTR.CAVITY>
0

>  <SCORE.RESTR.norm>
0

>  <SCORE.SYSTEM>
0

>  <SCORE.SYSTEM.CONST>
0

>  <SCORE.SYSTEM.DIHEDRAL>
0

>  <SCORE.SYSTEM.norm>
0

>  <SCORE.heavy>
43

>  <SCORE.norm>
-0.432927

$$$$
ligands/mol6.pdb
  rDOCK(R)          3D
libRbt.so/2013.1/901 2013/11/27
 49 53  0  0  0  0  0  0  0  0999 V2000
  -12.8177   16.4661   73.9640 N   0  0  0  0  0  0
  -13.5214   15.3388   72.9331 S   0  0  0  0  0  0
  -13.3012   14.0416   73.5722 O   0  0  0  0  0  0
  -14.8235   15.8402   72.6410 O   0  0  0  0  0  0
  -12.5007   15.4233   71.4923 C   0  0  0  0  0  0
  -13.0868   15.5308   70.2304 C   0  0  0  0  0  0
  -12.2750   15.5280   69.0926 C   0  0  0  0  0  0
  -10.8801   15.4231   69.2066 C   0  0  0  0  0  0
  -10.0169   15.4068   67.9653 C   0  0  0  0  0  0
   -9.8891   14.0510   67.3071 C   0  0  0  0  0  0
  -10.4438   13.8370   66.0366 C   0  0  0  0  0  0
  -10.3419   12.5940   65.4100 C   0  0  0  0  0  0
   -9.6371   11.5622   66.0206 C   0  0  0  0  0  0
   -9.0486   11.7715   67.2651 C   0  0  0  0  0  0
   -8.3352   10.7442   67.8937 N   0  0  0  0  0  0
   -8.8796    9.9285   68.8650 C   0  0  0  0  0  0
   -9.4547    8.8618   68.6697 O   0  0  0  0  0  0
   -8.6729   10.3698   70.1562 N   0  0  0  0  0  0
   -8.0522    9.6281   71.1771 C   0  0  0  0  0  0
   -8.7629    8.6957   71.9525 C   0  0  0  0  0  0
   -8.0306    8.0153   72.9402 C   0  0  0  0  0  0
   -6.6897    8.2936   73.1390 C   0  0  0  0  0  0
   -5.9869    9.1383   72.3691 N   0  0  0  0  0  0
   -6.6787    9.7837   71.4078 C   0  0  0  0  0  0
  -10.2578    8.3867   71.7840 C   0  0  0  0  0  0
  -10.8252    7.4018   72.8528 C   0  0  0  0  0  0
  -10.2569    6.0531   72.8174 N   0  0  0  0  0  0
  -10.8411    4.9621   73.4461 C   0  0  0  0  0  0
  -11.8199    4.3714   73.0020 O   0  0  0  0  0  0
  -10.0999    4.5219   74.7247 C   0  0  0  0  0  0
   -8.6612    4.0270   74.4713 C   0  0  0  0  0  0
   -7.5644    5.0973   74.5177 C   0  0  0  0  0  0
   -7.7125    6.0386   75.7076 C   0  0  0  0  0  0
   -7.4754    5.2886   76.8987 O   0  0  0  0  0  0
   -9.1099    6.6494   75.7369 C   0  0  0  0  0  0
  -10.1806    5.5652   75.8509 C   0  0  0  0  0  0
  -11.1280    9.6754   71.6943 C   0  0  0  0  0  0
  -12.5707    9.3414   71.3955 C   0  0  0  0  0  0
  -13.6534    9.6184   72.4012 C   0  0  0  0  0  0
  -13.5576   10.4575   71.1605 C   0  0  0  0  0  0
   -9.2045   12.9942   67.9283 C   0  0  0  0  0  0
  -10.3077   15.3259   70.4865 C   0  0  0  0  0  0
  -11.1136   15.3266   71.6267 C   0  0  0  0  0  0
  -11.9250   16.1110   74.3012 H   0  0  0  0  0  0
  -13.4779   16.6826   74.7144 H   0  0  0  0  0  0
   -7.5636   10.3477   67.3790 H   0  0  0  0  0  0
   -8.5937   11.3837   70.2053 H   0  0  0  0  0  0
   -9.6463    5.8387   72.0416 H   0  0  0  0  0  0
   -7.5287    5.8984   77.6543 H   0  0  0  0  0  0
  1  2  1  0  0  0
  1 44  1  0  0  0
  1 45  1  0  0  0
  2  3  2  0  0  0
  2  4  2  0  0  0
  2  5  1  0  0  0
  5  6  2  0  0  0
  5 43  1  0  0  0
  6  7  1  0  0  0
  7  8  2  0  0  0
  8  9  1  0  0  0
  8 42  1  0  0  0
  9 10  1  0  0  0
 10 11  2  0  0  0
 10 41  1  0  0  0
 11 12  1  0  0  0
 12 13  2  0  0  0
 13 14  1  0  0  0
 14 15  1  0  0  0
 14 41  2  0  0  0
 15 16  1  0  0  0
 15 46  1  0  0  0
 16 17  2  0  0  0
 16 18  1  0  0  0
 18 19  1  0  0  0
 18 47  1  0  0  0
 19 20  2  0  0  0
 19 24  1  0  0  0
 20 21  1  0  0  0
 20 25  1  0  0  0
 21 22  2  0  0  0
 22 23  1  0  0  0
 23 24  2  0  0  0
 25 26  1  0  0  0
 25 37  1  0  0  0
 26 27  1  0  0  0
 27 28  1  0  0  0
 27 48  1  0  0  0
 28 29  2  0  0  0
 28 30  1  0  0  0
 30 31  1  0  0  0
 30 36  1  0  0  0
 31 32  1  0  0  0
 32 33  1  0  0  0
 33 34  1  0  0  0
 33 35  1  0  0  0
 34 49  1  0  0  0
 35 36  1  0  0  0
 37 38  1  0  0  0
 38 39  1  0  0  0
 38 40  1  0  0  0
 39 40  1  0  0  0
 42 43  2  0  0  0
M  END
>  <AUTHOR>
    GENERATED BY OPEN BABEL 2.3.2

>  <CHROM.1>
42.05528731,-132.05983474,-83.25017058,113.36214028,-97.61316708,90.48624906
-123.55464587,-83.73992458,-175.01692510,-64.08620820,174.49267210,-163.77794385
76.74992408,-63.43710466,177.37956453,114.38353020,-10.32771901,10.50510208
71.54100960,2.01307625,0.89657882,-0.80857564

>  <COMPND>
    UNNAMED

>  <MASTER>
        0    0    0    0    0    0    0    0   82    0   82    0

>  <Name>
ligands/mol6.pdb

>  <RI>
2.95051e+07

>  <Rbt.Current_Directory>
/home/rochoa/Projects/OCONDOR

>  <Rbt.Executable>
rbdock ($Id: //depot/dev/client3/rdock/2013.1/src/exe/rbdock.cxx#4 $)

>  <Rbt.Library>
libRbt.so (2013.1, Build901 2013/11/27)

>  <Rbt.Parameter_File>
dock.prm

>  <Rbt.Receptor>
rdock.prm

>  <SCORE>
-15.1711

>  <SCORE.INTER>
-10.7636

>  <SCORE.INTER.CONST>
1

>  <SCORE.INTER.POLAR>
-1.06829

>  <SCORE.INTER.REPUL>
0.0331802

>  <SCORE.INTER.ROT>
15

>  <SCORE.INTER.VDW>
-27.6973

>  <SCORE.INTER.norm>
-0.250316

>  <SCORE.INTRA>
-4.4075

>  <SCORE.INTRA.DIHEDRAL>
-3.93899

>  <SCORE.INTRA.DIHEDRAL.0>
15.1377

>  <SCORE.INTRA.POLAR>
0

>  <SCORE.INTRA.POLAR.0>
0

>  <SCORE.INTRA.REPUL>
0

>  <SCORE.INTRA.REPUL.0>
0

>  <SCORE.INTRA.VDW>
-2.438

>  <SCORE.INTRA.VDW.0>
-4.46419

>  <SCORE.INTRA.norm>
-0.1025

>  <SCORE.RESTR>
0

>  <SCORE.RESTR.CAVITY>
0

>  <SCORE.RESTR.norm>
0

>  <SCORE.SYSTEM>
0

>  <SCORE.SYSTEM.CONST>
0

>  <SCORE.SYSTEM.DIHEDRAL>
0

>  <SCORE.SYSTEM.norm>
0

>  <SCORE.heavy>
43

>  <SCORE.norm>
-0.352816

$$$$
ligands/mol6.pdb
  rDOCK(R)          3D
libRbt.so/2013.1/901 2013/11/27
 49 53  0  0  0  0  0  0  0  0999 V2000
   -8.5906    5.4615   77.9096 N   0  0  0  0  0  0
  -10.0691    4.7160   77.6141 S   0  0  0  0  0  0
   -9.7958    3.2803   77.6744 O   0  0  0  0  0  0
  -11.0057    5.3568   78.4768 O   0  0  0  0  0  0
  -10.4024    5.1430   75.9314 C   0  0  0  0  0  0
  -10.7511    4.1477   75.0176 C   0  0  0  0  0  0
  -10.9460    4.4844   73.6751 C   0  0  0  0  0  0
  -10.7993    5.8103   73.2392 C   0  0  0  0  0  0
  -10.9993    6.1556   71.7808 C   0  0  0  0  0  0
  -10.3842    7.4708   71.3569 C   0  0  0  0  0  0
   -8.9998    7.6637   71.4746 C   0  0  0  0  0  0
   -8.4091    8.8695   71.0934 C   0  0  0  0  0  0
   -9.1861    9.8806   70.5382 C   0  0  0  0  0  0
  -10.5562    9.6890   70.3801 C   0  0  0  0  0  0
  -11.3531   10.6958   69.8226 N   0  0  0  0  0  0
  -11.4483   10.9214   68.4642 C   0  0  0  0  0  0
  -10.9081   10.2571   67.5847 O   0  0  0  0  0  0
  -12.2901   11.9595   68.1202 N   0  0  0  0  0  0
  -11.9591   13.3251   68.1774 C   0  0  0  0  0  0
  -10.9487   13.8770   67.3711 C   0  0  0  0  0  0
  -10.7132   15.2545   67.5180 C   0  0  0  0  0  0
  -11.4302   15.9967   68.4400 C   0  0  0  0  0  0
  -12.4350   15.4945   69.1738 N   0  0  0  0  0  0
  -12.6787   14.1761   69.0270 C   0  0  0  0  0  0
  -10.1093   13.0781   66.3633 C   0  0  0  0  0  0
  -10.2750   13.5508   64.8856 C   0  0  0  0  0  0
   -9.6565   12.6814   63.8831 N   0  0  0  0  0  0
  -10.3835   11.9577   62.9480 C   0  0  0  0  0  0
  -11.4762   12.3139   62.5197 O   0  0  0  0  0  0
   -9.6540   10.6941   62.4486 C   0  0  0  0  0  0
   -8.4183   10.9928   61.5752 C   0  0  0  0  0  0
   -7.0886   11.1475   62.3227 C   0  0  0  0  0  0
   -6.8768   10.0648   63.3747 C   0  0  0  0  0  0
   -6.7192    8.8164   62.7008 O   0  0  0  0  0  0
   -8.0659   10.0045   64.3282 C   0  0  0  0  0  0
   -9.3580    9.6910   63.5754 C   0  0  0  0  0  0
   -8.6051   13.0074   66.7615 C   0  0  0  0  0  0
   -8.4050   12.1564   67.9936 C   0  0  0  0  0  0
   -7.6529   10.8565   67.9224 C   0  0  0  0  0  0
   -7.0291   12.0413   68.6006 C   0  0  0  0  0  0
  -11.1644    8.5085   70.8223 C   0  0  0  0  0  0
  -10.4576    6.8004   74.1763 C   0  0  0  0  0  0
  -10.2602    6.4699   75.5185 C   0  0  0  0  0  0
   -8.7256    6.4669   77.9960 H   0  0  0  0  0  0
   -7.9373    5.2021   77.1668 H   0  0  0  0  0  0
  -12.1450   11.0009   70.3680 H   0  0  0  0  0  0
  -12.9801   11.6778   67.4264 H   0  0  0  0  0  0
   -8.6996   12.8874   63.6329 H   0  0  0  0  0  0
   -6.5507    8.1318   63.3706 H   0  0  0  0  0  0
  1  2  1  0  0  0
  1 44  1  0  0  0
  1 45  1  0  0  0
  2  3  2  0  0  0
  2  4  2  0  0  0
  2  5  1  0  0  0
  5  6  2  0  0  0
  5 43  1  0  0  0
  6  7  1  0  0  0
  7  8  2  0  0  0
  8  9  1  0  0  0
  8 42  1  0  0  0
  9 10  1  0  0  0
 10 11  2  0  0  0
 10 41  1  0  0  0
 11 12  1  0  0  0
 12 13  2  0  0  0
 13 14  1  0  0  0
 14 15  1  0  0  0
 14 41  2  0  0  0
 15 16  1  0  0  0
 15 46  1  0  0  0
 16 17  2  0  0  0
 16 18  1  0  0  0
 18 19  1  0  0  0
 18 47  1  0  0  0
 19 20  2  0  0  0
 19 24  1  0  0  0
 20 21  1  0  0  0
 20 25  1  0  0  0
 21 22  2  0  0  0
 22 23  1  0  0  0
 23 24  2  0  0  0
 25 26  1  0  0  0
 25 37  1  0  0  0
 26 27  1  0  0  0
 27 28  1  0  0  0
 27 48  1  0  0  0
 28 29  2  0  0  0
 28 30  1  0  0  0
 30 31  1  0  0  0
 30 36  1  0  0  0
 31 32  1  0  0  0
 32 33  1  0  0  0
 33 34  1  0  0  0
 33 35  1  0  0  0
 34 49  1  0  0  0
 35 36  1  0  0  0
 37 38  1  0  0  0
 38 39  1  0  0  0
 38 40  1  0  0  0
 39 40  1  0  0  0
 42 43  2  0  0  0
M  END
>  <AUTHOR>
    GENERATED BY OPEN BABEL 2.3.2

>  <CHROM.1>
-173.11229625,129.58669344,-160.70428478,60.67362333,80.35724323,3.09045520
79.61645348,64.02366138,118.22096385,-170.80762537,68.98411354,113.58729048
28.61090941,-69.09238640,177.89095534,113.90975638,-9.94394357,9.69360273
69.36806536,-1.67517459,1.06417967,-0.94177070

>  <COMPND>
    UNNAMED

>  <MASTER>
        0    0    0    0    0    0    0    0   82    0   82    0

>  <Name>
ligands/mol6.pdb

>  <RI>
2.95051e+07

>  <Rbt.Current_Directory>
/home/rochoa/Projects/OCONDOR

>  <Rbt.Executable>
rbdock ($Id: //depot/dev/client3/rdock/2013.1/src/exe/rbdock.cxx#4 $)

>  <Rbt.Library>
libRbt.so (2013.1, Build901 2013/11/27)

>  <Rbt.Parameter_File>
dock.prm

>  <Rbt.Receptor>
rdock.prm

>  <SCORE>
-16.1579

>  <SCORE.INTER>
-10.3679

>  <SCORE.INTER.CONST>
1

>  <SCORE.INTER.POLAR>
-1.57811

>  <SCORE.INTER.REPUL>
0.00719983

>  <SCORE.INTER.ROT>
15

>  <SCORE.INTER.VDW>
-25.4384

>  <SCORE.INTER.norm>
-0.241115

>  <SCORE.INTRA>
-5.78996

>  <SCORE.INTRA.DIHEDRAL>
-3.07505

>  <SCORE.INTRA.DIHEDRAL.0>
15.1377

>  <SCORE.INTRA.POLAR>
0

>  <SCORE.INTRA.POLAR.0>
0

>  <SCORE.INTRA.REPUL>
0

>  <SCORE.INTRA.REPUL.0>
0

>  <SCORE.INTRA.VDW>
-4.25243

>  <SCORE.INTRA.VDW.0>
-4.46419

>  <SCORE.INTRA.norm>
-0.13465

>  <SCORE.RESTR>
0

>  <SCORE.RESTR.CAVITY>
0

>  <SCORE.RESTR.norm>
0

>  <SCORE.SYSTEM>
0

>  <SCORE.SYSTEM.CONST>
0

>  <SCORE.SYSTEM.DIHEDRAL>
0

>  <SCORE.SYSTEM.norm>
0

>  <SCORE.heavy>
43

>  <SCORE.norm>
-0.375765

$$$$
ligands/mol6.pdb
  rDOCK(R)          3D
libRbt.so/2013.1/901 2013/11/27
 49 53  0  0  0  0  0  0  0  0999 V2000
   -9.9077   12.8770   63.3183 N   0  0  0  0  0  0
  -11.2950   13.1005   64.2426 S   0  0  0  0  0  0
  -11.3815   14.5436   64.4654 O   0  0  0  0  0  0
  -12.3219   12.3617   63.5855 O   0  0  0  0  0  0
  -10.8802   12.3300   65.7785 C   0  0  0  0  0  0
  -11.7455   11.3909   66.3413 C   0  0  0  0  0  0
  -11.4428   10.8377   67.5887 C   0  0  0  0  0  0
  -10.2785   11.2127   68.2767 C   0  0  0  0  0  0
   -9.9729   10.6159   69.6318 C   0  0  0  0  0  0
  -11.1606   10.5358   70.5649 C   0  0  0  0  0  0
  -12.1804   11.4953   70.4804 C   0  0  0  0  0  0
  -13.2847   11.4447   71.3324 C   0  0  0  0  0  0
  -13.4127   10.4032   72.2452 C   0  0  0  0  0  0
  -12.4268    9.4223   72.3145 C   0  0  0  0  0  0
  -12.5399    8.3667   73.2270 N   0  0  0  0  0  0
  -11.5840    7.3809   73.3668 C   0  0  0  0  0  0
  -10.4944    7.5078   73.9176 O   0  0  0  0  0  0
  -11.9681    6.1470   72.8825 N   0  0  0  0  0  0
  -11.0921    5.1007   72.5425 C   0  0  0  0  0  0
   -9.9215    5.3268   71.7980 C   0  0  0  0  0  0
   -9.1264    4.2009   71.5244 C   0  0  0  0  0  0
   -9.5176    2.9432   71.9489 C   0  0  0  0  0  0
  -10.6015    2.7221   72.7083 N   0  0  0  0  0  0
  -11.3617    3.8002   72.9895 C   0  0  0  0  0  0
   -9.4741    6.7017   71.2805 C   0  0  0  0  0  0
   -8.1212    7.1949   71.8810 C   0  0  0  0  0  0
   -7.7826    8.5883   71.5858 N   0  0  0  0  0  0
   -6.9375    8.9654   70.5512 C   0  0  0  0  0  0
   -7.3242    9.1769   69.4066 O   0  0  0  0  0  0
   -5.4731    9.1579   70.9947 C   0  0  0  0  0  0
   -5.2943   10.2022   72.1157 C   0  0  0  0  0  0
   -5.3851    9.6700   73.5507 C   0  0  0  0  0  0
   -4.5951    8.3816   73.7502 C   0  0  0  0  0  0
   -3.2075    8.6860   73.6113 O   0  0  0  0  0  0
   -5.0117    7.3333   72.7235 C   0  0  0  0  0  0
   -4.7622    7.8295   71.3000 C   0  0  0  0  0  0
   -9.4551    6.7774   69.7248 C   0  0  0  0  0  0
  -10.8531    6.7076   69.1567 C   0  0  0  0  0  0
  -11.1706    7.2922   67.8084 C   0  0  0  0  0  0
  -11.1331    5.8020   67.9835 C   0  0  0  0  0  0
  -11.2847    9.5046   71.5097 C   0  0  0  0  0  0
   -9.4142   12.1525   67.6891 C   0  0  0  0  0  0
   -9.7120   12.7098   66.4439 C   0  0  0  0  0  0
   -9.8437   11.9035   63.0270 H   0  0  0  0  0  0
   -9.0986   13.1931   63.8581 H   0  0  0  0  0  0
  -13.1145    8.5301   74.0398 H   0  0  0  0  0  0
  -12.9017    5.8876   73.1953 H   0  0  0  0  0  0
   -8.4410    9.2898   71.8939 H   0  0  0  0  0  0
   -3.0713    9.0760   72.7309 H   0  0  0  0  0  0
  1  2  1  0  0  0
  1 44  1  0  0  0
  1 45  1  0  0  0
  2  3  2  0  0  0
  2  4  2  0  0  0
  2  5  1  0  0  0
  5  6  2  0  0  0
  5 43  1  0  0  0
  6  7  1  0  0  0
  7  8  2  0  0  0
  8  9  1  0  0  0
  8 42  1  0  0  0
  9 10  1  0  0  0
 10 11  2  0  0  0
 10 41  1  0  0  0
 11 12  1  0  0  0
 12 13  2  0  0  0
 13 14  1  0  0  0
 14 15  1  0  0  0
 14 41  2  0  0  0
 15 16  1  0  0  0
 15 46  1  0  0  0
 16 17  2  0  0  0
 16 18  1  0  0  0
 18 19  1  0  0  0
 18 47  1  0  0  0
 19 20  2  0  0  0
 19 24  1  0  0  0
 20 21  1  0  0  0
 20 25  1  0  0  0
 21 22  2  0  0  0
 22 23  1  0  0  0
 23 24  2  0  0  0
 25 26  1  0  0  0
 25 37  1  0  0  0
 26 27  1  0  0  0
 27 28  1  0  0  0
 27 48  1  0  0  0
 28 29  2  0  0  0
 28 30  1  0  0  0
 30 31  1  0  0  0
 30 36  1  0  0  0
 31 32  1  0  0  0
 32 33  1  0  0  0
 33 34  1  0  0  0
 33 35  1  0  0  0
 34 49  1  0  0  0
 35 36  1  0  0  0
 37 38  1  0  0  0
 38 39  1  0  0  0
 38 40  1  0  0  0
 39 40  1  0  0  0
 42 43  2  0  0  0
M  END
>  <AUTHOR>
    GENERATED BY OPEN BABEL 2.3.2

>  <CHROM.1>
-173.12521862,-128.96132155,-43.44623166,-30.86287124,-178.46249836,74.68012982
160.35659966,-44.67606001,116.78121819,-170.08450677,67.94875352,-97.13572351
88.09644311,-57.77400872,-57.83893566,155.22144917,-9.67891621,8.97590797
70.01878194,-1.86913239,0.27547595,2.35773332

>  <COMPND>
    UNNAMED

>  <MASTER>
        0    0    0    0    0    0    0    0   82    0   82    0

>  <Name>
ligands/mol6.pdb

>  <RI>
2.95051e+07

>  <Rbt.Current_Directory>
/home/rochoa/Projects/OCONDOR

>  <Rbt.Executable>
rbdock ($Id: //depot/dev/client3/rdock/2013.1/src/exe/rbdock.cxx#4 $)

>  <Rbt.Library>
libRbt.so (2013.1, Build901 2013/11/27)

>  <Rbt.Parameter_File>
dock.prm

>  <Rbt.Receptor>
rdock.prm

>  <SCORE>
-14.3169

>  <SCORE.INTER>
-9.28248

>  <SCORE.INTER.CONST>
1

>  <SCORE.INTER.POLAR>
-1.48023

>  <SCORE.INTER.REPUL>
0.0340924

>  <SCORE.INTER.ROT>
15

>  <SCORE.INTER.VDW>
-24.8202

>  <SCORE.INTER.norm>
-0.215872

>  <SCORE.INTRA>
-5.03439

>  <SCORE.INTRA.DIHEDRAL>
-3.21186

>  <SCORE.INTRA.DIHEDRAL.0>
15.1377

>  <SCORE.INTRA.POLAR>
0

>  <SCORE.INTRA.POLAR.0>
0

>  <SCORE.INTRA.REPUL>
0

>  <SCORE.INTRA.REPUL.0>
0

>  <SCORE.INTRA.VDW>
-3.42846

>  <SCORE.INTRA.VDW.0>
-4.46419

>  <SCORE.INTRA.norm>
-0.117079

>  <SCORE.RESTR>
0

>  <SCORE.RESTR.CAVITY>
0

>  <SCORE.RESTR.norm>
0

>  <SCORE.SYSTEM>
0

>  <SCORE.SYSTEM.CONST>
0

>  <SCORE.SYSTEM.DIHEDRAL>
0

>  <SCORE.SYSTEM.norm>
0

>  <SCORE.heavy>
43

>  <SCORE.norm>
-0.332951

$$$$
ligands/mol6.pdb
  rDOCK(R)          3D
libRbt.so/2013.1/901 2013/11/27
 49 53  0  0  0  0  0  0  0  0999 V2000
   -8.4503    8.4032   75.0927 N   0  0  0  0  0  0
   -8.9442    6.7955   75.1012 S   0  0  0  0  0  0
   -7.7294    6.0177   74.8585 O   0  0  0  0  0  0
   -9.7346    6.6389   76.2772 O   0  0  0  0  0  0
   -9.9661    6.6839   73.6631 C   0  0  0  0  0  0
   -9.6467    5.7768   72.6520 C   0  0  0  0  0  0
  -10.4205    5.7433   71.4885 C   0  0  0  0  0  0
  -11.5150    6.6073   71.3295 C   0  0  0  0  0  0
  -12.3332    6.5687   70.0586 C   0  0  0  0  0  0
  -11.5207    6.6547   68.7857 C   0  0  0  0  0  0
  -11.1195    5.4794   68.1334 C   0  0  0  0  0  0
  -10.3664    5.5325   66.9595 C   0  0  0  0  0  0
  -10.0493    6.7615   66.3907 C   0  0  0  0  0  0
  -10.4732    7.9360   67.0067 C   0  0  0  0  0  0
  -10.1634    9.1815   66.4477 N   0  0  0  0  0  0
   -8.8771    9.5724   66.1351 C   0  0  0  0  0  0
   -8.4426    9.7812   65.0063 O   0  0  0  0  0  0
   -8.0704    9.7950   67.2325 N   0  0  0  0  0  0
   -8.4223    9.5221   68.5665 C   0  0  0  0  0  0
   -9.2894   10.3589   69.2900 C   0  0  0  0  0  0
   -9.5669    9.9782   70.6139 C   0  0  0  0  0  0
   -8.9765    8.8524   71.1608 C   0  0  0  0  0  0
   -8.1933    8.0148   70.4642 N   0  0  0  0  0  0
   -7.9350    8.3641   69.1873 C   0  0  0  0  0  0
   -9.9347   11.6341   68.7278 C   0  0  0  0  0  0
  -11.2781   12.0221   69.4200 C   0  0  0  0  0  0
  -11.3899   13.4279   69.8134 N   0  0  0  0  0  0
  -12.3823   14.2757   69.3412 C   0  0  0  0  0  0
  -12.6104   14.4499   68.1488 O   0  0  0  0  0  0
  -13.2161   14.9281   70.4625 C   0  0  0  0  0  0
  -13.9309   13.9130   71.3778 C   0  0  0  0  0  0
  -13.1389   13.4373   72.6013 C   0  0  0  0  0  0
  -12.4507   14.5817   73.3366 C   0  0  0  0  0  0
  -13.4606   15.4090   73.9138 O   0  0  0  0  0  0
  -11.5875   15.3934   72.3761 C   0  0  0  0  0  0
  -12.4309   15.9895   71.2500 C   0  0  0  0  0  0
   -8.9504   12.8410   68.7031 C   0  0  0  0  0  0
   -7.8339   12.6159   67.7107 C   0  0  0  0  0  0
   -6.7191   13.6135   67.5607 C   0  0  0  0  0  0
   -6.4497   12.2887   68.2125 C   0  0  0  0  0  0
  -11.1706    7.8908   68.2195 C   0  0  0  0  0  0
  -11.8271    7.5069   72.3632 C   0  0  0  0  0  0
  -11.0568    7.5461   73.5271 C   0  0  0  0  0  0
   -7.9184    8.5933   74.2456 H   0  0  0  0  0  0
   -7.9272    8.5910   75.9512 H   0  0  0  0  0  0
  -10.8934    9.6354   65.9201 H   0  0  0  0  0  0
   -7.0813    9.7500   66.9949 H   0  0  0  0  0  0
  -10.9756   13.6853   70.6981 H   0  0  0  0  0  0
  -13.0211   16.1454   74.3724 H   0  0  0  0  0  0
  1  2  1  0  0  0
  1 44  1  0  0  0
  1 45  1  0  0  0
  2  3  2  0  0  0
  2  4  2  0  0  0
  2  5  1  0  0  0
  5  6  2  0  0  0
  5 43  1  0  0  0
  6  7  1  0  0  0
  7  8  2  0  0  0
  8  9  1  0  0  0
  8 42  1  0  0  0
  9 10  1  0  0  0
 10 11  2  0  0  0
 10 41  1  0  0  0
 11 12  1  0  0  0
 12 13  2  0  0  0
 13 14  1  0  0  0
 14 15  1  0  0  0
 14 41  2  0  0  0
 15 16  1  0  0  0
 15 46  1  0  0  0
 16 17  2  0  0  0
 16 18  1  0  0  0
 18 19  1  0  0  0
 18 47  1  0  0  0
 19 20  2  0  0  0
 19 24  1  0  0  0
 20 21  1  0  0  0
 20 25  1  0  0  0
 21 22  2  0  0  0
 22 23  1  0  0  0
 23 24  2  0  0  0
 25 26  1  0  0  0
 25 37  1  0  0  0
 26 27  1  0  0  0
 27 28  1  0  0  0
 27 48  1  0  0  0
 28 29  2  0  0  0
 28 30  1  0  0  0
 30 31  1  0  0  0
 30 36  1  0  0  0
 31 32  1  0  0  0
 32 33  1  0  0  0
 33 34  1  0  0  0
 33 35  1  0  0  0
 34 49  1  0  0  0
 35 36  1  0  0  0
 37 38  1  0  0  0
 38 39  1  0  0  0
 38 40  1  0  0  0
 39 40  1  0  0  0
 42 43  2  0  0  0
M  END
>  <AUTHOR>
    GENERATED BY OPEN BABEL 2.3.2

>  <CHROM.1>
51.84693031,121.22852401,-50.85348771,93.70597519,-54.08178458,113.97414409
6.89642221,-76.73819804,154.08859097,132.47506372,67.26014989,120.46775795
-53.66659774,-58.94964912,-179.24473288,-176.77446226,-10.23253390,9.95052447
70.41791279,0.84081644,-1.21427539,2.18219284

>  <COMPND>
    UNNAMED

>  <MASTER>
        0    0    0    0    0    0    0    0   82    0   82    0

>  <Name>
ligands/mol6.pdb

>  <RI>
2.95051e+07

>  <Rbt.Current_Directory>
/home/rochoa/Projects/OCONDOR

>  <Rbt.Executable>
rbdock ($Id: //depot/dev/client3/rdock/2013.1/src/exe/rbdock.cxx#4 $)

>  <Rbt.Library>
libRbt.so (2013.1, Build901 2013/11/27)

>  <Rbt.Parameter_File>
dock.prm

>  <Rbt.Receptor>
rdock.prm

>  <SCORE>
-13.2675

>  <SCORE.INTER>
-8.70906

>  <SCORE.INTER.CONST>
1

>  <SCORE.INTER.POLAR>
-0.146463

>  <SCORE.INTER.REPUL>
0

>  <SCORE.INTER.ROT>
15

>  <SCORE.INTER.VDW>
-28.6111

>  <SCORE.INTER.norm>
-0.202536

>  <SCORE.INTRA>
-4.55841

>  <SCORE.INTRA.DIHEDRAL>
1.81946

>  <SCORE.INTRA.DIHEDRAL.0>
15.1377

>  <SCORE.INTRA.POLAR>
0

>  <SCORE.INTRA.POLAR.0>
0

>  <SCORE.INTRA.REPUL>
0

>  <SCORE.INTRA.REPUL.0>
0

>  <SCORE.INTRA.VDW>
-5.46814

>  <SCORE.INTRA.VDW.0>
-4.46419

>  <SCORE.INTRA.norm>
-0.10601

>  <SCORE.RESTR>
0

>  <SCORE.RESTR.CAVITY>
0

>  <SCORE.RESTR.norm>
0

>  <SCORE.SYSTEM>
0

>  <SCORE.SYSTEM.CONST>
0

>  <SCORE.SYSTEM.DIHEDRAL>
0

>  <SCORE.SYSTEM.norm>
0

>  <SCORE.heavy>
43

>  <SCORE.norm>
-0.308546

$$$$
ligands/mol6.pdb
  rDOCK(R)          3D
libRbt.so/2013.1/901 2013/11/27
 49 53  0  0  0  0  0  0  0  0999 V2000
  -12.5085   14.9785   74.4824 N   0  0  0  0  0  0
  -12.9263   16.3427   73.5918 S   0  0  0  0  0  0
  -14.3613   16.5220   73.8114 O   0  0  0  0  0  0
  -11.9662   17.3390   73.9351 O   0  0  0  0  0  0
  -12.6861   15.8180   71.9210 C   0  0  0  0  0  0
  -13.4607   14.7807   71.3999 C   0  0  0  0  0  0
  -13.2173   14.3266   70.1006 C   0  0  0  0  0  0
  -12.2079   14.9047   69.3155 C   0  0  0  0  0  0
  -11.9475   14.3921   67.9171 C   0  0  0  0  0  0
  -10.6711   13.5943   67.7682 C   0  0  0  0  0  0
   -9.8835   13.7464   66.6175 C   0  0  0  0  0  0
   -8.7034   13.0190   66.4553 C   0  0  0  0  0  0
   -8.2649   12.1693   67.4652 C   0  0  0  0  0  0
   -9.0169   12.0369   68.6296 C   0  0  0  0  0  0
   -8.5902   11.1865   69.6563 N   0  0  0  0  0  0
   -8.6906    9.8114   69.5917 C   0  0  0  0  0  0
   -7.7598    9.0166   69.6839 O   0  0  0  0  0  0
   -9.9837    9.3429   69.4767 N   0  0  0  0  0  0
  -10.4799    8.1747   70.0824 C   0  0  0  0  0  0
  -10.5797    6.9611   69.3805 C   0  0  0  0  0  0
  -11.0884    5.8640   70.0962 C   0  0  0  0  0  0
  -11.4936    6.0085   71.4115 C   0  0  0  0  0  0
  -11.3504    7.1455   72.1094 N   0  0  0  0  0  0
  -10.8475    8.1995   71.4345 C   0  0  0  0  0  0
  -10.1733    6.7721   67.9116 C   0  0  0  0  0  0
  -10.9594    7.6797   66.9152 C   0  0  0  0  0  0
  -10.2312    8.0395   65.6971 N   0  0  0  0  0  0
   -9.8877    9.3442   65.3708 C   0  0  0  0  0  0
  -10.4181   10.3283   65.8754 O   0  0  0  0  0  0
   -8.7271    9.4381   64.3597 C   0  0  0  0  0  0
   -8.9668    8.6413   63.0610 C   0  0  0  0  0  0
   -9.6694    9.3984   61.9280 C   0  0  0  0  0  0
   -9.1051   10.7991   61.7194 C   0  0  0  0  0  0
   -7.7685   10.6713   61.2352 O   0  0  0  0  0  0
   -9.1208   11.5832   63.0277 C   0  0  0  0  0  0
   -8.2805   10.8853   64.0961 C   0  0  0  0  0  0
   -8.6366    6.9052   67.6949 C   0  0  0  0  0  0
   -7.8754    5.9321   68.5642 C   0  0  0  0  0  0
   -6.8456    5.0092   67.9741 C   0  0  0  0  0  0
   -6.4085    6.1633   68.8282 C   0  0  0  0  0  0
  -10.2350   12.7120   68.7694 C   0  0  0  0  0  0
  -11.4450   15.9551   69.8542 C   0  0  0  0  0  0
  -11.6824   16.4120   71.1521 C   0  0  0  0  0  0
  -12.5953   15.1792   75.4768 H   0  0  0  0  0  0
  -11.5687   14.6823   74.2087 H   0  0  0  0  0  0
   -7.8676   11.5389   70.2656 H   0  0  0  0  0  0
  -10.6484   10.0946   69.3042 H   0  0  0  0  0  0
   -9.6620    7.3171   65.2792 H   0  0  0  0  0  0
   -7.4505   11.5573   60.9911 H   0  0  0  0  0  0
  1  2  1  0  0  0
  1 44  1  0  0  0
  1 45  1  0  0  0
  2  3  2  0  0  0
  2  4  2  0  0  0
  2  5  1  0  0  0
  5  6  2  0  0  0
  5 43  1  0  0  0
  6  7  1  0  0  0
  7  8  2  0  0  0
  8  9  1  0  0  0
  8 42  1  0  0  0
  9 10  1  0  0  0
 10 11  2  0  0  0
 10 41  1  0  0  0
 11 12  1  0  0  0
 12 13  2  0  0  0
 13 14  1  0  0  0
 14 15  1  0  0  0
 14 41  2  0  0  0
 15 16  1  0  0  0
 15 46  1  0  0  0
 16 17  2  0  0  0
 16 18  1  0  0  0
 18 19  1  0  0  0
 18 47  1  0  0  0
 19 20  2  0  0  0
 19 24  1  0  0  0
 20 21  1  0  0  0
 20 25  1  0  0  0
 21 22  2  0  0  0
 22 23  1  0  0  0
 23 24  2  0  0  0
 25 26  1  0  0  0
 25 37  1  0  0  0
 26 27  1  0  0  0
 27 28  1  0  0  0
 27 48  1  0  0  0
 28 29  2  0  0  0
 28 30  1  0  0  0
 30 31  1  0  0  0
 30 36  1  0  0  0
 31 32  1  0  0  0
 32 33  1  0  0  0
 33 34  1  0  0  0
 33 35  1  0  0  0
 34 49  1  0  0  0
 35 36  1  0  0  0
 37 38  1  0  0  0
 38 39  1  0  0  0
 38 40  1  0  0  0
 39 40  1  0  0  0
 42 43  2  0  0  0
M  END
>  <AUTHOR>
    GENERATED BY OPEN BABEL 2.3.2

>  <CHROM.1>
-67.81915929,63.27094603,-107.49020184,-140.86670757,-75.29311183,121.90519012
-143.17995704,-98.05862946,-60.00742963,151.16503682,56.37576595,-116.64257834
-18.14850128,54.57592802,172.62641287,127.95306320,-10.28095489,11.07701605
68.53342658,3.07283870,1.21255050,-0.74943499

>  <COMPND>
    UNNAMED

>  <MASTER>
        0    0    0    0    0    0    0    0   82    0   82    0

>  <Name>
ligands/mol6.pdb

>  <RI>
2.95051e+07

>  <Rbt.Current_Directory>
/home/rochoa/Projects/OCONDOR

>  <Rbt.Executable>
rbdock ($Id: //depot/dev/client3/rdock/2013.1/src/exe/rbdock.cxx#4 $)

>  <Rbt.Library>
libRbt.so (2013.1, Build901 2013/11/27)

>  <Rbt.Parameter_File>
dock.prm

>  <Rbt.Receptor>
rdock.prm

>  <SCORE>
-11.7129

>  <SCORE.INTER>
-7.34763

>  <SCORE.INTER.CONST>
1

>  <SCORE.INTER.POLAR>
-0.000983938

>  <SCORE.INTER.REPUL>
0.0231933

>  <SCORE.INTER.ROT>
15

>  <SCORE.INTER.VDW>
-27.8603

>  <SCORE.INTER.norm>
-0.170875

>  <SCORE.INTRA>
-4.36525

>  <SCORE.INTRA.DIHEDRAL>
-1.63422

>  <SCORE.INTRA.DIHEDRAL.0>
15.1377

>  <SCORE.INTRA.POLAR>
0

>  <SCORE.INTRA.POLAR.0>
0

>  <SCORE.INTRA.REPUL>
0

>  <SCORE.INTRA.REPUL.0>
0

>  <SCORE.INTRA.VDW>
-3.54814

>  <SCORE.INTRA.VDW.0>
-4.46419

>  <SCORE.INTRA.norm>
-0.101517

>  <SCORE.RESTR>
0

>  <SCORE.RESTR.CAVITY>
0

>  <SCORE.RESTR.norm>
0

>  <SCORE.SYSTEM>
0

>  <SCORE.SYSTEM.CONST>
0

>  <SCORE.SYSTEM.DIHEDRAL>
0

>  <SCORE.SYSTEM.norm>
0

>  <SCORE.heavy>
43

>  <SCORE.norm>
-0.272393

$$$$
ligands/mol6.pdb
  rDOCK(R)          3D
libRbt.so/2013.1/901 2013/11/27
 49 53  0  0  0  0  0  0  0  0999 V2000
   -8.9851   17.3652   68.6630 N   0  0  0  0  0  0
  -10.2969   16.7958   67.7777 S   0  0  0  0  0  0
  -11.1342   17.9696   67.5308 O   0  0  0  0  0  0
   -9.7427   16.0121   66.7237 O   0  0  0  0  0  0
  -11.1363   15.7537   68.9328 C   0  0  0  0  0  0
  -12.1893   14.9455   68.5024 C   0  0  0  0  0  0
  -12.8915   14.1765   69.4347 C   0  0  0  0  0  0
  -12.5462   14.2056   70.7947 C   0  0  0  0  0  0
  -13.3251   13.3791   71.7928 C   0  0  0  0  0  0
  -13.1121   11.8863   71.6741 C   0  0  0  0  0  0
  -13.7264   11.0189   72.5895 C   0  0  0  0  0  0
  -13.5425    9.6380   72.5028 C   0  0  0  0  0  0
  -12.7858    9.1000   71.4673 C   0  0  0  0  0  0
  -12.2011    9.9465   70.5290 C   0  0  0  0  0  0
  -11.4368    9.4220   69.4800 N   0  0  0  0  0  0
  -10.0742    9.2185   69.5639 C   0  0  0  0  0  0
   -9.2327   10.0755   69.8173 O   0  0  0  0  0  0
   -9.6870    7.9036   69.4029 N   0  0  0  0  0  0
   -8.4266    7.4796   68.9454 C   0  0  0  0  0  0
   -7.3915    7.1407   69.8338 C   0  0  0  0  0  0
   -6.1793    6.7287   69.2545 C   0  0  0  0  0  0
   -6.0303    6.7006   67.8790 C   0  0  0  0  0  0
   -7.0271    6.9662   67.0210 N   0  0  0  0  0  0
   -8.1993    7.3467   67.5690 C   0  0  0  0  0  0
   -7.5090    7.1937   71.3641 C   0  0  0  0  0  0
   -6.6305    6.1374   72.1037 C   0  0  0  0  0  0
   -6.9168    5.9824   73.5311 N   0  0  0  0  0  0
   -8.1062    5.4583   74.0182 C   0  0  0  0  0  0
   -8.4864    4.3159   73.7844 O   0  0  0  0  0  0
   -8.8733    6.4299   74.9379 C   0  0  0  0  0  0
  -10.2217    5.8762   75.4421 C   0  0  0  0  0  0
  -10.1746    5.0844   76.7541 C   0  0  0  0  0  0
   -9.3285    5.7676   77.8224 C   0  0  0  0  0  0
   -9.9863    6.9757   78.2036 O   0  0  0  0  0  0
   -7.9330    6.0718   77.2870 C   0  0  0  0  0  0
   -8.0006    6.9942   76.0707 C   0  0  0  0  0  0
   -7.2620    8.6223   71.9333 C   0  0  0  0  0  0
   -5.9370    9.1763   71.4646 C   0  0  0  0  0  0
   -5.8759   10.3817   70.5680 C   0  0  0  0  0  0
   -5.4534   10.4995   72.0033 C   0  0  0  0  0  0
  -12.3261   11.3354   70.6494 C   0  0  0  0  0  0
  -11.4762   15.0181   71.2075 C   0  0  0  0  0  0
  -10.7720   15.7897   70.2809 C   0  0  0  0  0  0
   -8.4798   16.5802   69.0692 H   0  0  0  0  0  0
   -9.3235   18.0339   69.3589 H   0  0  0  0  0  0
  -11.9208    8.8386   68.8145 H   0  0  0  0  0  0
  -10.1868    7.2785   70.0323 H   0  0  0  0  0  0
   -6.1200    5.9128   74.1482 H   0  0  0  0  0  0
  -10.0771    7.5323   77.4114 H   0  0  0  0  0  0
  1  2  1  0  0  0
  1 44  1  0  0  0
  1 45  1  0  0  0
  2  3  2  0  0  0
  2  4  2  0  0  0
  2  5  1  0  0  0
  5  6  2  0  0  0
  5 43  1  0  0  0
  6  7  1  0  0  0
  7  8  2  0  0  0
  8  9  1  0  0  0
  8 42  1  0  0  0
  9 10  1  0  0  0
 10 11  2  0  0  0
 10 41  1  0  0  0
 11 12  1  0  0  0
 12 13  2  0  0  0
 13 14  1  0  0  0
 14 15  1  0  0  0
 14 41  2  0  0  0
 15 16  1  0  0  0
 15 46  1  0  0  0
 16 17  2  0  0  0
 16 18  1  0  0  0
 18 19  1  0  0  0
 18 47  1  0  0  0
 19 20  2  0  0  0
 19 24  1  0  0  0
 20 21  1  0  0  0
 20 25  1  0  0  0
 21 22  2  0  0  0
 22 23  1  0  0  0
 23 24  2  0  0  0
 25 26  1  0  0  0
 25 37  1  0  0  0
 26 27  1  0  0  0
 27 28  1  0  0  0
 27 48  1  0  0  0
 28 29  2  0  0  0
 28 30  1  0  0  0
 30 31  1  0  0  0
 30 36  1  0  0  0
 31 32  1  0  0  0
 32 33  1  0  0  0
 33 34  1  0  0  0
 33 35  1  0  0  0
 34 49  1  0  0  0
 35 36  1  0  0  0
 37 38  1  0  0  0
 38 39  1  0  0  0
 38 40  1  0  0  0
 39 40  1  0  0  0
 42 43  2  0  0  0
M  END
>  <AUTHOR>
    GENERATED BY OPEN BABEL 2.3.2

>  <CHROM.1>
165.99549084,-171.06959236,69.92730726,176.69579527,-90.48450965,-57.51090785
154.56633183,94.84408829,149.26652588,-168.37775179,-54.28193102,67.18361799
61.84152478,177.85242258,-59.22784149,114.98243432,-9.58141834,10.09019435
71.24830073,-1.91870034,-0.79039398,2.35583520

>  <COMPND>
    UNNAMED

>  <MASTER>
        0    0    0    0    0    0    0    0   82    0   82    0

>  <Name>
ligands/mol6.pdb

>  <RI>
2.95051e+07

>  <Rbt.Current_Directory>
/home/rochoa/Projects/OCONDOR

>  <Rbt.Executable>
rbdock ($Id: //depot/dev/client3/rdock/2013.1/src/exe/rbdock.cxx#4 $)

>  <Rbt.Library>
libRbt.so (2013.1, Build901 2013/11/27)

>  <Rbt.Parameter_File>
dock.prm

>  <Rbt.Receptor>
rdock.prm

>  <SCORE>
-9.85812

>  <SCORE.INTER>
-7.25352

>  <SCORE.INTER.CONST>
1

>  <SCORE.INTER.POLAR>
-1.71317

>  <SCORE.INTER.REPUL>
0.123883

>  <SCORE.INTER.ROT>
15

>  <SCORE.INTER.VDW>
-22.4481

>  <SCORE.INTER.norm>
-0.168687

>  <SCORE.INTRA>
-2.60459

>  <SCORE.INTRA.DIHEDRAL>
-3.95002

>  <SCORE.INTRA.DIHEDRAL.0>
15.1377

>  <SCORE.INTRA.POLAR>
0

>  <SCORE.INTRA.POLAR.0>
0

>  <SCORE.INTRA.REPUL>
0

>  <SCORE.INTRA.REPUL.0>
0

>  <SCORE.INTRA.VDW>
-0.629586

>  <SCORE.INTRA.VDW.0>
-4.46419

>  <SCORE.INTRA.norm>
-0.060572

>  <SCORE.RESTR>
0

>  <SCORE.RESTR.CAVITY>
0

>  <SCORE.RESTR.norm>
0

>  <SCORE.SYSTEM>
0

>  <SCORE.SYSTEM.CONST>
0

>  <SCORE.SYSTEM.DIHEDRAL>
0

>  <SCORE.SYSTEM.norm>
0

>  <SCORE.heavy>
43

>  <SCORE.norm>
-0.229258

$$$$
ligands/mol6.pdb
  rDOCK(R)          3D
libRbt.so/2013.1/901 2013/11/27
 49 53  0  0  0  0  0  0  0  0999 V2000
   -9.9949    2.0012   70.2330 N   0  0  0  0  0  0
   -8.3475    2.1735   70.5243 S   0  0  0  0  0  0
   -8.0722    1.3339   71.6901 O   0  0  0  0  0  0
   -7.7082    1.9741   69.2659 O   0  0  0  0  0  0
   -8.2038    3.8649   71.0175 C   0  0  0  0  0  0
   -7.0876    4.2855   71.7418 C   0  0  0  0  0  0
   -7.0150    5.6087   72.1864 C   0  0  0  0  0  0
   -8.0481    6.5169   71.9085 C   0  0  0  0  0  0
   -7.9611    7.9409   72.4091 C   0  0  0  0  0  0
   -7.8413    8.9833   71.3196 C   0  0  0  0  0  0
   -6.5901    9.2508   70.7445 C   0  0  0  0  0  0
   -6.4533   10.2103   69.7402 C   0  0  0  0  0  0
   -7.5739   10.8781   69.2579 C   0  0  0  0  0  0
   -8.8280   10.5956   69.7930 C   0  0  0  0  0  0
   -9.9665   11.2580   69.3190 N   0  0  0  0  0  0
  -11.2145   10.6712   69.2600 C   0  0  0  0  0  0
  -11.4611    9.4837   69.4484 O   0  0  0  0  0  0
  -12.2466   11.5576   69.0283 N   0  0  0  0  0  0
  -12.2504   12.5573   68.0392 C   0  0  0  0  0  0
  -12.0493   13.9122   68.3543 C   0  0  0  0  0  0
  -12.0726   14.8154   67.2780 C   0  0  0  0  0  0
  -12.3167   14.3700   65.9907 C   0  0  0  0  0  0
  -12.4532   13.0746   65.6691 N   0  0  0  0  0  0
  -12.4157   12.1991   66.6945 C   0  0  0  0  0  0
  -11.8108   14.4469   69.7741 C   0  0  0  0  0  0
  -10.4186   15.1233   69.9706 C   0  0  0  0  0  0
   -9.2706   14.3073   69.5708 N   0  0  0  0  0  0
   -8.4332   14.6345   68.5133 C   0  0  0  0  0  0
   -7.9797   13.8066   67.7302 O   0  0  0  0  0  0
   -8.1808   16.1497   68.3771 C   0  0  0  0  0  0
   -6.7659   16.5025   67.8743 C   0  0  0  0  0  0
   -6.5987   16.6027   66.3536 C   0  0  0  0  0  0
   -7.7235   17.3887   65.6897 C   0  0  0  0  0  0
   -7.6228   18.7488   66.1109 O   0  0  0  0  0  0
   -9.0815   16.8136   66.0796 C   0  0  0  0  0  0
   -9.2883   16.8715   67.5924 C   0  0  0  0  0  0
  -12.9587   15.3800   70.2619 C   0  0  0  0  0  0
  -14.1472   14.5802   70.7414 C   0  0  0  0  0  0
  -14.4695   14.4758   72.2063 C   0  0  0  0  0  0
  -15.3458   15.2993   71.3082 C   0  0  0  0  0  0
   -8.9622    9.6837   70.8463 C   0  0  0  0  0  0
   -9.1595    6.0772   71.1689 C   0  0  0  0  0  0
   -9.2385    4.7563   70.7234 C   0  0  0  0  0  0
  -10.5061    2.0628   71.1113 H   0  0  0  0  0  0
  -10.1504    1.1223   69.7337 H   0  0  0  0  0  0
   -9.9648   12.2646   69.3836 H   0  0  0  0  0  0
  -13.1486   11.1741   69.3041 H   0  0  0  0  0  0
   -8.8704   13.7095   70.2802 H   0  0  0  0  0  0
   -8.3131   19.2579   65.6526 H   0  0  0  0  0  0
  1  2  1  0  0  0
  1 44  1  0  0  0
  1 45  1  0  0  0
  2  3  2  0  0  0
  2  4  2  0  0  0
  2  5  1  0  0  0
  5  6  2  0  0  0
  5 43  1  0  0  0
  6  7  1  0  0  0
  7  8  2  0  0  0
  8  9  1  0  0  0
  8 42  1  0  0  0
  9 10  1  0  0  0
 10 11  2  0  0  0
 10 41  1  0  0  0
 11 12  1  0  0  0
 12 13  2  0  0  0
 13 14  1  0  0  0
 14 15  1  0  0  0
 14 41  2  0  0  0
 15 16  1  0  0  0
 15 46  1  0  0  0
 16 17  2  0  0  0
 16 18  1  0  0  0
 18 19  1  0  0  0
 18 47  1  0  0  0
 19 20  2  0  0  0
 19 24  1  0  0  0
 20 21  1  0  0  0
 20 25  1  0  0  0
 21 22  2  0  0  0
 22 23  1  0  0  0
 23 24  2  0  0  0
 25 26  1  0  0  0
 25 37  1  0  0  0
 26 27  1  0  0  0
 27 28  1  0  0  0
 27 48  1  0  0  0
 28 29  2  0  0  0
 28 30  1  0  0  0
 30 31  1  0  0  0
 30 36  1  0  0  0
 31 32  1  0  0  0
 32 33  1  0  0  0
 33 34  1  0  0  0
 33 35  1  0  0  0
 34 49  1  0  0  0
 35 36  1  0  0  0
 37 38  1  0  0  0
 38 39  1  0  0  0
 38 40  1  0  0  0
 39 40  1  0  0  0
 42 43  2  0  0  0
M  END
>  <AUTHOR>
    GENERATED BY OPEN BABEL 2.3.2

>  <CHROM.1>
44.59121012,159.60448072,114.15589921,-81.89319893,147.24005235,-9.41580271
47.19165220,-104.21273823,117.17918026,-53.13060506,79.83540200,114.32092185
-140.47030468,145.89991128,177.21921477,107.10643846,-9.62195453,10.90565614
69.35768852,1.41164597,-0.24825101,2.85472365

>  <COMPND>
    UNNAMED

>  <MASTER>
        0    0    0    0    0    0    0    0   82    0   82    0

>  <Name>
ligands/mol6.pdb

>  <RI>
2.95051e+07

>  <Rbt.Current_Directory>
/home/rochoa/Projects/OCONDOR

>  <Rbt.Executable>
rbdock ($Id: //depot/dev/client3/rdock/2013.1/src/exe/rbdock.cxx#4 $)

>  <Rbt.Library>
libRbt.so (2013.1, Build901 2013/11/27)

>  <Rbt.Parameter_File>
dock.prm

>  <Rbt.Receptor>
rdock.prm

>  <SCORE>
-11.9226

>  <SCORE.INTER>
-5.17021

>  <SCORE.INTER.CONST>
1

>  <SCORE.INTER.POLAR>
-0.561486

>  <SCORE.INTER.REPUL>
0.12787

>  <SCORE.INTER.ROT>
15

>  <SCORE.INTER.VDW>
-24.3005

>  <SCORE.INTER.norm>
-0.120238

>  <SCORE.INTRA>
-6.75235

>  <SCORE.INTRA.DIHEDRAL>
-0.337585

>  <SCORE.INTRA.DIHEDRAL.0>
15.1377

>  <SCORE.INTRA.POLAR>
-1

>  <SCORE.INTRA.POLAR.0>
0

>  <SCORE.INTRA.REPUL>
0

>  <SCORE.INTRA.REPUL.0>
0

>  <SCORE.INTRA.VDW>
-3.18355

>  <SCORE.INTRA.VDW.0>
-4.46419

>  <SCORE.INTRA.norm>
-0.157031

>  <SCORE.RESTR>
0

>  <SCORE.RESTR.CAVITY>
0

>  <SCORE.RESTR.norm>
0

>  <SCORE.SYSTEM>
0

>  <SCORE.SYSTEM.CONST>
0

>  <SCORE.SYSTEM.DIHEDRAL>
0

>  <SCORE.SYSTEM.norm>
0

>  <SCORE.heavy>
43

>  <SCORE.norm>
-0.277269

$$$$
ligands/mol6.pdb
  rDOCK(R)          3D
libRbt.so/2013.1/901 2013/11/27
 49 53  0  0  0  0  0  0  0  0999 V2000
   -5.3592   11.2107   77.1217 N   0  0  0  0  0  0
   -6.5775   10.1027   77.4634 S   0  0  0  0  0  0
   -6.2128    9.5138   78.7518 O   0  0  0  0  0  0
   -7.8041   10.7991   77.2568 O   0  0  0  0  0  0
   -6.3600    8.8716   76.2137 C   0  0  0  0  0  0
   -6.5016    7.5213   76.5359 C   0  0  0  0  0  0
   -6.2607    6.5520   75.5580 C   0  0  0  0  0  0
   -5.8834    6.9224   74.2580 C   0  0  0  0  0  0
   -5.6122    5.8613   73.2157 C   0  0  0  0  0  0
   -6.5364    5.9056   72.0192 C   0  0  0  0  0  0
   -7.4146    4.8392   71.7760 C   0  0  0  0  0  0
   -8.2747    4.8552   70.6769 C   0  0  0  0  0  0
   -8.3082    5.9618   69.8351 C   0  0  0  0  0  0
   -7.4691    7.0443   70.0859 C   0  0  0  0  0  0
   -7.4901    8.1664   69.2492 N   0  0  0  0  0  0
   -8.0930    9.3586   69.5961 C   0  0  0  0  0  0
   -7.5463   10.3067   70.1518 O   0  0  0  0  0  0
   -9.4114    9.4624   69.2012 N   0  0  0  0  0  0
  -10.2391    8.3823   68.8465 C   0  0  0  0  0  0
  -11.0895    7.7630   69.7787 C   0  0  0  0  0  0
  -11.8696    6.6958   69.3021 C   0  0  0  0  0  0
  -11.7605    6.2764   67.9878 C   0  0  0  0  0  0
  -10.9962    6.8946   67.0746 N   0  0  0  0  0  0
  -10.2562    7.9306   67.5200 C   0  0  0  0  0  0
  -11.2108    8.1781   71.2524 C   0  0  0  0  0  0
  -12.5144    8.9693   71.5822 C   0  0  0  0  0  0
  -12.8603   10.0217   70.6251 N   0  0  0  0  0  0
  -12.1951   11.2380   70.5551 C   0  0  0  0  0  0
  -10.9853   11.3367   70.3792 O   0  0  0  0  0  0
  -13.1344   12.4572   70.6534 C   0  0  0  0  0  0
  -13.8452   12.5871   72.0161 C   0  0  0  0  0  0
  -13.1055   13.3998   73.0852 C   0  0  0  0  0  0
  -12.5326   14.7031   72.5402 C   0  0  0  0  0  0
  -13.6232   15.5553   72.1912 O   0  0  0  0  0  0
  -11.6592   14.4350   71.3187 C   0  0  0  0  0  0
  -12.4633   13.7656   70.2052 C   0  0  0  0  0  0
  -11.0234    6.9788   72.2283 C   0  0  0  0  0  0
  -10.6526    7.4537   73.6137 C   0  0  0  0  0  0
   -9.7109    6.6612   74.4772 C   0  0  0  0  0  0
   -9.2560    7.9591   73.8760 C   0  0  0  0  0  0
   -6.5570    7.0056   71.1469 C   0  0  0  0  0  0
   -5.7557    8.2878   73.9499 C   0  0  0  0  0  0
   -5.9935    9.2606   74.9230 C   0  0  0  0  0  0
   -5.5615   11.6813   76.2418 H   0  0  0  0  0  0
   -4.4606   10.7222   77.1233 H   0  0  0  0  0  0
   -6.7480    8.2390   68.5699 H   0  0  0  0  0  0
   -9.8646   10.2846   69.5953 H   0  0  0  0  0  0
  -13.3331    9.7297   69.7814 H   0  0  0  0  0  0
  -14.1772   15.6745   72.9815 H   0  0  0  0  0  0
  1  2  1  0  0  0
  1 44  1  0  0  0
  1 45  1  0  0  0
  2  3  2  0  0  0
  2  4  2  0  0  0
  2  5  1  0  0  0
  5  6  2  0  0  0
  5 43  1  0  0  0
  6  7  1  0  0  0
  7  8  2  0  0  0
  8  9  1  0  0  0
  8 42  1  0  0  0
  9 10  1  0  0  0
 10 11  2  0  0  0
 10 41  1  0  0  0
 11 12  1  0  0  0
 12 13  2  0  0  0
 13 14  1  0  0  0
 14 15  1  0  0  0
 14 41  2  0  0  0
 15 16  1  0  0  0
 15 46  1  0  0  0
 16 17  2  0  0  0
 16 18  1  0  0  0
 18 19  1  0  0  0
 18 47  1  0  0  0
 19 20  2  0  0  0
 19 24  1  0  0  0
 20 21  1  0  0  0
 20 25  1  0  0  0
 21 22  2  0  0  0
 22 23  1  0  0  0
 23 24  2  0  0  0
 25 26  1  0  0  0
 25 37  1  0  0  0
 26 27  1  0  0  0
 27 28  1  0  0  0
 27 48  1  0  0  0
 28 29  2  0  0  0
 28 30  1  0  0  0
 30 31  1  0  0  0
 30 36  1  0  0  0
 31 32  1  0  0  0
 32 33  1  0  0  0
 33 34  1  0  0  0
 33 35  1  0  0  0
 34 49  1  0  0  0
 35 36  1  0  0  0
 37 38  1  0  0  0
 38 39  1  0  0  0
 38 40  1  0  0  0
 39 40  1  0  0  0
 42 43  2  0  0  0
M  END
>  <AUTHOR>
    GENERATED BY OPEN BABEL 2.3.2

>  <CHROM.1>
-178.52164945,139.81875760,117.87263258,-115.06454047,104.09887192,91.70419511
18.56229466,94.21060994,104.82809295,-44.90466520,159.55517941,-74.69788587
56.59052342,65.20009848,56.70874419,-145.00565397,-9.29991753,9.15452980
72.30995233,0.25925589,-0.78405516,0.82347381

>  <COMPND>
    UNNAMED

>  <MASTER>
        0    0    0    0    0    0    0    0   82    0   82    0

>  <Name>
ligands/mol6.pdb

>  <RI>
2.95051e+07

>  <Rbt.Current_Directory>
/home/rochoa/Projects/OCONDOR

>  <Rbt.Executable>
rbdock ($Id: //depot/dev/client3/rdock/2013.1/src/exe/rbdock.cxx#4 $)

>  <Rbt.Library>
libRbt.so (2013.1, Build901 2013/11/27)

>  <Rbt.Parameter_File>
dock.prm

>  <Rbt.Receptor>
rdock.prm

>  <SCORE>
-14.3779

>  <SCORE.INTER>
-2.93215

>  <SCORE.INTER.CONST>
1

>  <SCORE.INTER.POLAR>
-0.357907

>  <SCORE.INTER.REPUL>
0.00886502

>  <SCORE.INTER.ROT>
15

>  <SCORE.INTER.VDW>
-22.1596

>  <SCORE.INTER.norm>
-0.0681896

>  <SCORE.INTRA>
-11.4457

>  <SCORE.INTRA.DIHEDRAL>
-2.4238

>  <SCORE.INTRA.DIHEDRAL.0>
15.1377

>  <SCORE.INTRA.POLAR>
-1

>  <SCORE.INTRA.POLAR.0>
0

>  <SCORE.INTRA.REPUL>
0

>  <SCORE.INTRA.REPUL.0>
0

>  <SCORE.INTRA.VDW>
-6.83385

>  <SCORE.INTRA.VDW.0>
-4.46419

>  <SCORE.INTRA.norm>
-0.26618

>  <SCORE.RESTR>
0

>  <SCORE.RESTR.CAVITY>
0

>  <SCORE.RESTR.norm>
0

>  <SCORE.SYSTEM>
0

>  <SCORE.SYSTEM.CONST>
0

>  <SCORE.SYSTEM.DIHEDRAL>
0

>  <SCORE.SYSTEM.norm>
0

>  <SCORE.heavy>
43

>  <SCORE.norm>
-0.33437

$$$$
ligands/mol6.pdb
  rDOCK(R)          3D
libRbt.so/2013.1/901 2013/11/27
 49 53  0  0  0  0  0  0  0  0999 V2000
   -4.5390   13.3024   67.4144 N   0  0  0  0  0  0
   -6.0834   13.2212   68.0755 S   0  0  0  0  0  0
   -5.8790   13.0920   69.5181 O   0  0  0  0  0  0
   -6.8106   14.3019   67.4963 O   0  0  0  0  0  0
   -6.6981   11.6798   67.4662 C   0  0  0  0  0  0
   -5.8479   10.5764   67.3827 C   0  0  0  0  0  0
   -6.3239    9.3813   66.8361 C   0  0  0  0  0  0
   -7.6458    9.2790   66.3759 C   0  0  0  0  0  0
   -8.1410    7.9835   65.7737 C   0  0  0  0  0  0
   -9.1790    7.2615   66.6038 C   0  0  0  0  0  0
  -10.5420    7.5198   66.3954 C   0  0  0  0  0  0
  -11.5186    6.8690   67.1509 C   0  0  0  0  0  0
  -11.1495    5.9103   68.0884 C   0  0  0  0  0  0
   -9.8020    5.6160   68.2796 C   0  0  0  0  0  0
   -9.4128    4.6536   69.2186 N   0  0  0  0  0  0
   -8.6934    4.9542   70.3575 C   0  0  0  0  0  0
   -7.4764    5.1001   70.4226 O   0  0  0  0  0  0
   -9.4698    5.1610   71.4797 N   0  0  0  0  0  0
  -10.2057    4.1682   72.1509 C   0  0  0  0  0  0
  -11.3700    4.4725   72.8771 C   0  0  0  0  0  0
  -12.0183    3.3935   73.5015 C   0  0  0  0  0  0
  -11.4964    2.1146   73.4171 C   0  0  0  0  0  0
  -10.4192    1.8018   72.6808 N   0  0  0  0  0  0
   -9.8001    2.8296   72.0645 C   0  0  0  0  0  0
  -11.9585    5.8837   73.0219 C   0  0  0  0  0  0
  -10.9024    6.9775   73.3717 C   0  0  0  0  0  0
   -9.7112    6.4893   74.0689 N   0  0  0  0  0  0
   -8.9127    7.2937   74.8701 C   0  0  0  0  0  0
   -8.5421    8.4162   74.5433 O   0  0  0  0  0  0
   -8.5904    6.6660   76.2414 C   0  0  0  0  0  0
   -9.8352    6.1799   77.0116 C   0  0  0  0  0  0
  -10.2687    4.7338   76.7441 C   0  0  0  0  0  0
   -9.0967    3.7589   76.7497 C   0  0  0  0  0  0
   -8.5793    3.6950   78.0785 O   0  0  0  0  0  0
   -8.0119    4.2197   75.7815 C   0  0  0  0  0  0
   -7.4841    5.6013   76.1655 C   0  0  0  0  0  0
  -12.8112    6.3049   71.7883 C   0  0  0  0  0  0
  -13.7682    7.4197   72.1399 C   0  0  0  0  0  0
  -13.6527    8.7717   71.4925 C   0  0  0  0  0  0
  -14.7922    7.8660   71.1265 C   0  0  0  0  0  0
   -8.8152    6.3133   67.5732 C   0  0  0  0  0  0
   -8.4899   10.3981   66.4776 C   0  0  0  0  0  0
   -8.0197   11.5951   67.0214 C   0  0  0  0  0  0
   -4.0400   14.0981   67.8075 H   0  0  0  0  0  0
   -4.6190   13.3367   66.3954 H   0  0  0  0  0  0
   -9.9755    3.8180   69.2708 H   0  0  0  0  0  0
   -9.1373    5.9472   72.0347 H   0  0  0  0  0  0
   -9.6746    5.4988   74.2647 H   0  0  0  0  0  0
   -9.2564    3.2888   78.6462 H   0  0  0  0  0  0
  1  2  1  0  0  0
  1 44  1  0  0  0
  1 45  1  0  0  0
  2  3  2  0  0  0
  2  4  2  0  0  0
  2  5  1  0  0  0
  5  6  2  0  0  0
  5 43  1  0  0  0
  6  7  1  0  0  0
  7  8  2  0  0  0
  8  9  1  0  0  0
  8 42  1  0  0  0
  9 10  1  0  0  0
 10 11  2  0  0  0
 10 41  1  0  0  0
 11 12  1  0  0  0
 12 13  2  0  0  0
 13 14  1  0  0  0
 14 15  1  0  0  0
 14 41  2  0  0  0
 15 16  1  0  0  0
 15 46  1  0  0  0
 16 17  2  0  0  0
 16 18  1  0  0  0
 18 19  1  0  0  0
 18 47  1  0  0  0
 19 20  2  0  0  0
 19 24  1  0  0  0
 20 21  1  0  0  0
 20 25  1  0  0  0
 21 22  2  0  0  0
 22 23  1  0  0  0
 23 24  2  0  0  0
 25 26  1  0  0  0
 25 37  1  0  0  0
 26 27  1  0  0  0
 27 28  1  0  0  0
 27 48  1  0  0  0
 28 29  2  0  0  0
 28 30  1  0  0  0
 30 31  1  0  0  0
 30 36  1  0  0  0
 31 32  1  0  0  0
 32 33  1  0  0  0
 33 34  1  0  0  0
 33 35  1  0  0  0
 34 49  1  0  0  0
 35 36  1  0  0  0
 37 38  1  0  0  0
 38 39  1  0  0  0
 38 40  1  0  0  0
 39 40  1  0  0  0
 42 43  2  0  0  0
M  END
>  <AUTHOR>
    GENERATED BY OPEN BABEL 2.3.2

>  <CHROM.1>
-58.92963693,38.89939790,111.85850053,90.95480873,-114.04614429,-82.17091485
68.80766334,-152.27376741,-46.13831891,-25.79727627,159.03332058,-156.17767941
-45.50211789,-51.79738724,66.36991887,116.44194835,-9.21861824,7.28632326
71.03480579,-1.07519956,0.88575812,1.91659035

>  <COMPND>
    UNNAMED

>  <MASTER>
        0    0    0    0    0    0    0    0   82    0   82    0

>  <Name>
ligands/mol6.pdb

>  <RI>
2.95051e+07

>  <Rbt.Current_Directory>
/home/rochoa/Projects/OCONDOR

>  <Rbt.Executable>
rbdock ($Id: //depot/dev/client3/rdock/2013.1/src/exe/rbdock.cxx#4 $)

>  <Rbt.Library>
libRbt.so (2013.1, Build901 2013/11/27)

>  <Rbt.Parameter_File>
dock.prm

>  <Rbt.Receptor>
rdock.prm

>  <SCORE>
-6.32001

>  <SCORE.INTER>
-2.08116

>  <SCORE.INTER.CONST>
1

>  <SCORE.INTER.POLAR>
-0.429685

>  <SCORE.INTER.REPUL>
0

>  <SCORE.INTER.ROT>
15

>  <SCORE.INTER.VDW>
-21.0202

>  <SCORE.INTER.norm>
-0.0483991

>  <SCORE.INTRA>
-4.23885

>  <SCORE.INTRA.DIHEDRAL>
0.862669

>  <SCORE.INTRA.DIHEDRAL.0>
15.1377

>  <SCORE.INTRA.POLAR>
-0.557684

>  <SCORE.INTRA.POLAR.0>
0

>  <SCORE.INTRA.REPUL>
0

>  <SCORE.INTRA.REPUL.0>
0

>  <SCORE.INTRA.VDW>
-2.77406

>  <SCORE.INTRA.VDW.0>
-4.46419

>  <SCORE.INTRA.norm>
-0.0985779

>  <SCORE.RESTR>
0

>  <SCORE.RESTR.CAVITY>
0

>  <SCORE.RESTR.norm>
0

>  <SCORE.SYSTEM>
0

>  <SCORE.SYSTEM.CONST>
0

>  <SCORE.SYSTEM.DIHEDRAL>
0

>  <SCORE.SYSTEM.norm>
0

>  <SCORE.heavy>
43

>  <SCORE.norm>
-0.146977

$$$$
