ligands/mol1.pdb
  rDOCK(R)          3D
libRbt.so/2013.1/901 2013/11/27
 45 48  0  0  0  0  0  0  0  0999 V2000
  -10.2564   18.3649   66.1131 C   0  0  0  0  0  0
   -9.6687   19.5186   65.5688 C   0  0  0  0  0  0
   -9.6663   20.6927   66.3035 C   0  0  0  0  0  0
  -10.2524   20.8187   67.5031 N   0  0  0  0  0  0
  -10.8128   19.6967   68.0220 C   0  0  0  0  0  0
  -10.7853   18.4384   67.4145 C   0  0  0  0  0  0
  -11.2277   17.2532   68.0512 N   0  0  0  0  0  0
  -11.2928   17.0297   69.4126 C   0  0  0  0  0  0
  -10.8583   17.8060   70.2516 O   0  0  0  0  0  0
  -11.9049   15.8136   69.6899 N   0  0  0  0  0  0
  -12.1248   15.2711   70.9769 C   0  0  0  0  0  0
  -11.5614   15.8176   72.1323 C   0  0  0  0  0  0
  -11.8640   15.3060   73.3866 C   0  0  0  0  0  0
  -12.7109   14.2159   73.5026 C   0  0  0  0  0  0
  -13.2648   13.6092   72.3663 C   0  0  0  0  0  0
  -14.1778   12.4044   72.4722 C   0  0  0  0  0  0
  -13.5356   11.0658   72.1547 C   0  0  0  0  0  0
  -12.3763   11.0076   71.3643 C   0  0  0  0  0  0
  -11.7941    9.7776   71.0503 C   0  0  0  0  0  0
  -12.3843    8.5997   71.5191 C   0  0  0  0  0  0
  -11.6150    7.0357   71.1934 S   0  0  0  0  0  0
  -10.1860    7.1742   71.4550 O   0  0  0  0  0  0
  -12.4059    5.9999   71.7792 O   0  0  0  0  0  0
  -11.8116    6.8947   69.5293 N   0  0  0  0  0  0
  -13.5556    8.6404   72.2776 C   0  0  0  0  0  0
  -14.1344    9.8711   72.5861 C   0  0  0  0  0  0
  -12.9621   14.1511   71.0997 C   0  0  0  0  0  0
  -10.3109   17.1148   65.2596 C   0  0  0  0  0  0
  -11.4749   17.0422   64.2564 C   0  0  0  0  0  0
  -11.8683   15.6868   63.9255 N   0  0  0  0  0  0
  -12.0904   14.7133   64.8812 C   0  0  0  0  0  0
  -11.9307   14.9147   66.0806 O   0  0  0  0  0  0
  -12.4108   13.3276   64.3074 C   0  0  0  0  0  0
  -11.4332   12.8999   63.1993 C   0  0  0  0  0  0
  -10.0907   12.3808   63.7231 C   0  0  0  0  0  0
  -10.2532   11.3034   64.7918 C   0  0  0  0  0  0
  -11.2108   11.7304   65.9006 C   0  0  0  0  0  0
  -12.5514   12.2254   65.3645 C   0  0  0  0  0  0
  -10.7622   10.1122   64.1947 O   0  0  0  0  0  0
  -11.3239   16.4388   67.4705 H   0  0  0  0  0  0
  -12.3975   15.3736   68.9287 H   0  0  0  0  0  0
  -11.0891    7.3763   68.9924 H   0  0  0  0  0  0
  -12.7499    7.2091   69.2845 H   0  0  0  0  0  0
  -12.0515   15.4780   62.9553 H   0  0  0  0  0  0
  -10.8183    9.4399   64.8978 H   0  0  0  0  0  0
  1  2  2  0  0  0
  1  6  1  0  0  0
  1 28  1  0  0  0
  2  3  1  0  0  0
  3  4  2  0  0  0
  4  5  1  0  0  0
  5  6  2  0  0  0
  6  7  1  0  0  0
  7  8  1  0  0  0
  7 40  1  0  0  0
  8  9  2  0  0  0
  8 10  1  0  0  0
 10 11  1  0  0  0
 10 41  1  0  0  0
 11 12  2  0  0  0
 11 27  1  0  0  0
 12 13  1  0  0  0
 13 14  2  0  0  0
 14 15  1  0  0  0
 15 16  1  0  0  0
 15 27  2  0  0  0
 16 17  1  0  0  0
 17 18  2  0  0  0
 17 26  1  0  0  0
 18 19  1  0  0  0
 19 20  2  0  0  0
 20 21  1  0  0  0
 20 25  1  0  0  0
 21 22  2  0  0  0
 21 23  2  0  0  0
 21 24  1  0  0  0
 24 42  1  0  0  0
 24 43  1  0  0  0
 25 26  2  0  0  0
 28 29  1  0  0  0
 29 30  1  0  0  0
 30 31  1  0  0  0
 30 44  1  0  0  0
 31 32  2  0  0  0
 31 33  1  0  0  0
 33 34  1  0  0  0
 33 38  1  0  0  0
 34 35  1  0  0  0
 35 36  1  0  0  0
 36 37  1  0  0  0
 36 39  1  0  0  0
 37 38  1  0  0  0
 39 45  1  0  0  0
M  END
>  <AUTHOR>
    GENERATED BY OPEN BABEL 2.3.2

>  <CHROM.1>
-82.52277232,153.96569226,-10.01026022,-101.80520853,-22.33691492,44.66160098
83.99247008,-153.14093593,48.19873450,47.83809143,177.77466454,-11.66005509
13.41662574,68.61371895,0.70442912,1.38856744,0.36227443

>  <COMPND>
    mol1_3d.pdb 

>  <MASTER>
        0    0    0    0    0    0    0    0   72    0   72    0

>  <Name>
ligands/mol1.pdb

>  <RI>
7.69155e+06

>  <Rbt.Current_Directory>
/home/rodrigo/Desktop/Rodrigo/Proyectos/test_OCONDOR/OCONDOR

>  <Rbt.Executable>
rbdock ($Id: //depot/dev/client3/rdock/2013.1/src/exe/rbdock.cxx#4 $)

>  <Rbt.Library>
libRbt.so (2013.1, Build901 2013/11/27)

>  <Rbt.Parameter_File>
dock.prm

>  <Rbt.Receptor>
rdock.prm

>  <SCORE>
-29.1996

>  <SCORE.INTER>
-28.6578

>  <SCORE.INTER.CONST>
1

>  <SCORE.INTER.POLAR>
-1.35363

>  <SCORE.INTER.REPUL>
0.00275042

>  <SCORE.INTER.ROT>
10

>  <SCORE.INTER.VDW>
-39.4692

>  <SCORE.INTER.norm>
-0.734815

>  <SCORE.INTRA>
-0.541869

>  <SCORE.INTRA.DIHEDRAL>
1.7138

>  <SCORE.INTRA.DIHEDRAL.0>
8.24127

>  <SCORE.INTRA.POLAR>
-0.999673

>  <SCORE.INTRA.POLAR.0>
0

>  <SCORE.INTRA.REPUL>
0

>  <SCORE.INTRA.REPUL.0>
0

>  <SCORE.INTRA.VDW>
2.00012

>  <SCORE.INTRA.VDW.0>
-4.15137

>  <SCORE.INTRA.norm>
-0.0138941

>  <SCORE.RESTR>
0

>  <SCORE.RESTR.CAVITY>
0

>  <SCORE.RESTR.norm>
0

>  <SCORE.SYSTEM>
0

>  <SCORE.SYSTEM.CONST>
0

>  <SCORE.SYSTEM.DIHEDRAL>
0

>  <SCORE.SYSTEM.norm>
0

>  <SCORE.heavy>
39

>  <SCORE.norm>
-0.748709

$$$$
ligands/mol1.pdb
  rDOCK(R)          3D
libRbt.so/2013.1/901 2013/11/27
 45 48  0  0  0  0  0  0  0  0999 V2000
  -12.4741   14.7579   70.0704 C   0  0  0  0  0  0
  -12.1253   16.0436   70.5153 C   0  0  0  0  0  0
  -12.1588   16.3274   71.8706 C   0  0  0  0  0  0
  -12.5674   15.4533   72.8019 N   0  0  0  0  0  0
  -12.8974   14.2125   72.3618 C   0  0  0  0  0  0
  -12.8046   13.7875   71.0337 C   0  0  0  0  0  0
  -12.9931   12.4437   70.6280 N   0  0  0  0  0  0
  -13.2180   11.3617   71.4564 C   0  0  0  0  0  0
  -13.1670   11.4163   72.6769 O   0  0  0  0  0  0
  -13.4982   10.2182   70.7184 N   0  0  0  0  0  0
  -13.7667    8.9352   71.2484 C   0  0  0  0  0  0
  -15.0554    8.5107   71.5803 C   0  0  0  0  0  0
  -15.2903    7.2164   72.0231 C   0  0  0  0  0  0
  -14.2326    6.3345   72.1732 C   0  0  0  0  0  0
  -12.9174    6.7316   71.8925 C   0  0  0  0  0  0
  -11.7457    5.7871   72.0688 C   0  0  0  0  0  0
  -11.1709    5.7109   73.4721 C   0  0  0  0  0  0
  -10.5259    6.8249   74.0333 C   0  0  0  0  0  0
   -9.9755    6.7536   75.3148 C   0  0  0  0  0  0
  -10.0597    5.5558   76.0318 C   0  0  0  0  0  0
   -9.4337    5.4722   77.6887 S   0  0  0  0  0  0
   -8.0409    5.9070   77.6657 O   0  0  0  0  0  0
  -10.3997    6.0366   78.5774 O   0  0  0  0  0  0
   -9.4401    3.8153   77.9763 N   0  0  0  0  0  0
  -10.6683    4.4304   75.4734 C   0  0  0  0  0  0
  -11.2139    4.5062   74.1923 C   0  0  0  0  0  0
  -12.6965    8.0445   71.4266 C   0  0  0  0  0  0
  -12.5002   14.4958   68.5789 C   0  0  0  0  0  0
  -11.2283   13.8609   67.9908 C   0  0  0  0  0  0
  -11.4980   12.8654   66.9720 N   0  0  0  0  0  0
  -10.5327   12.0015   66.4901 C   0  0  0  0  0  0
   -9.3641   12.0416   66.8608 O   0  0  0  0  0  0
  -11.0123   11.0909   65.3531 C   0  0  0  0  0  0
  -11.5773   11.8765   64.1572 C   0  0  0  0  0  0
  -10.5024   12.4679   63.2401 C   0  0  0  0  0  0
   -9.4640   11.4357   62.8093 C   0  0  0  0  0  0
   -8.8902   10.6650   63.9948 C   0  0  0  0  0  0
   -9.9726   10.0640   64.8875 C   0  0  0  0  0  0
  -10.0638   10.5003   61.9149 O   0  0  0  0  0  0
  -12.7568   12.2230   69.6767 H   0  0  0  0  0  0
  -13.7122   10.3531   69.7429 H   0  0  0  0  0  0
  -10.3672    3.3939   77.9043 H   0  0  0  0  0  0
   -9.0045    3.6402   78.8811 H   0  0  0  0  0  0
  -12.4525   12.7637   66.6604 H   0  0  0  0  0  0
  -10.3578   10.9999   61.1316 H   0  0  0  0  0  0
  1  2  2  0  0  0
  1  6  1  0  0  0
  1 28  1  0  0  0
  2  3  1  0  0  0
  3  4  2  0  0  0
  4  5  1  0  0  0
  5  6  2  0  0  0
  6  7  1  0  0  0
  7  8  1  0  0  0
  7 40  1  0  0  0
  8  9  2  0  0  0
  8 10  1  0  0  0
 10 11  1  0  0  0
 10 41  1  0  0  0
 11 12  2  0  0  0
 11 27  1  0  0  0
 12 13  1  0  0  0
 13 14  2  0  0  0
 14 15  1  0  0  0
 15 16  1  0  0  0
 15 27  2  0  0  0
 16 17  1  0  0  0
 17 18  2  0  0  0
 17 26  1  0  0  0
 18 19  1  0  0  0
 19 20  2  0  0  0
 20 21  1  0  0  0
 20 25  1  0  0  0
 21 22  2  0  0  0
 21 23  2  0  0  0
 21 24  1  0  0  0
 24 42  1  0  0  0
 24 43  1  0  0  0
 25 26  2  0  0  0
 28 29  1  0  0  0
 29 30  1  0  0  0
 30 31  1  0  0  0
 30 44  1  0  0  0
 31 32  2  0  0  0
 31 33  1  0  0  0
 33 34  1  0  0  0
 33 38  1  0  0  0
 34 35  1  0  0  0
 35 36  1  0  0  0
 36 37  1  0  0  0
 36 39  1  0  0  0
 37 38  1  0  0  0
 39 45  1  0  0  0
M  END
>  <AUTHOR>
    GENERATED BY OPEN BABEL 2.3.2

>  <CHROM.1>
96.34940495,174.70597824,89.45288996,-84.70014548,-66.56079483,-54.89592274
-60.02750191,140.89386752,-167.72522789,56.46530233,61.94281718,-11.44345276
9.74168672,70.97656884,1.71092952,1.24376566,-1.10907964

>  <COMPND>
    mol1_3d.pdb 

>  <MASTER>
        0    0    0    0    0    0    0    0   72    0   72    0

>  <Name>
ligands/mol1.pdb

>  <RI>
7.69155e+06

>  <Rbt.Current_Directory>
/home/rodrigo/Desktop/Rodrigo/Proyectos/test_OCONDOR/OCONDOR

>  <Rbt.Executable>
rbdock ($Id: //depot/dev/client3/rdock/2013.1/src/exe/rbdock.cxx#4 $)

>  <Rbt.Library>
libRbt.so (2013.1, Build901 2013/11/27)

>  <Rbt.Parameter_File>
dock.prm

>  <Rbt.Receptor>
rdock.prm

>  <SCORE>
-15.7214

>  <SCORE.INTER>
-23.5161

>  <SCORE.INTER.CONST>
1

>  <SCORE.INTER.POLAR>
-0.891865

>  <SCORE.INTER.REPUL>
0

>  <SCORE.INTER.ROT>
10

>  <SCORE.INTER.VDW>
-35.8838

>  <SCORE.INTER.norm>
-0.602977

>  <SCORE.INTRA>
7.79469

>  <SCORE.INTRA.DIHEDRAL>
13.8501

>  <SCORE.INTRA.DIHEDRAL.0>
8.24127

>  <SCORE.INTRA.POLAR>
0

>  <SCORE.INTRA.POLAR.0>
0

>  <SCORE.INTRA.REPUL>
0

>  <SCORE.INTRA.REPUL.0>
0

>  <SCORE.INTRA.VDW>
0.869635

>  <SCORE.INTRA.VDW.0>
-4.15137

>  <SCORE.INTRA.norm>
0.199864

>  <SCORE.RESTR>
0

>  <SCORE.RESTR.CAVITY>
0

>  <SCORE.RESTR.norm>
0

>  <SCORE.SYSTEM>
0

>  <SCORE.SYSTEM.CONST>
0

>  <SCORE.SYSTEM.DIHEDRAL>
0

>  <SCORE.SYSTEM.norm>
0

>  <SCORE.heavy>
39

>  <SCORE.norm>
-0.403114

$$$$
ligands/mol1.pdb
  rDOCK(R)          3D
libRbt.so/2013.1/901 2013/11/27
 45 48  0  0  0  0  0  0  0  0999 V2000
  -13.1901   10.3618   71.3598 C   0  0  0  0  0  0
  -13.7111   10.9309   72.5334 C   0  0  0  0  0  0
  -13.7481   12.3094   72.6631 C   0  0  0  0  0  0
  -13.2551   13.1547   71.7461 N   0  0  0  0  0  0
  -12.7586   12.5944   70.6139 C   0  0  0  0  0  0
  -12.7630   11.2250   70.3346 C   0  0  0  0  0  0
  -12.3945   10.6822   69.0794 N   0  0  0  0  0  0
  -12.0788   11.3949   67.9393 C   0  0  0  0  0  0
  -12.1925   12.6085   67.8416 O   0  0  0  0  0  0
  -11.6283   10.5506   66.9319 N   0  0  0  0  0  0
  -11.2312   10.9473   65.6343 C   0  0  0  0  0  0
  -10.4487   10.1404   64.8051 C   0  0  0  0  0  0
  -10.1453   10.5294   63.5077 C   0  0  0  0  0  0
  -10.5931   11.7500   63.0295 C   0  0  0  0  0  0
  -11.3452   12.6105   63.8419 C   0  0  0  0  0  0
  -11.8274   13.9576   63.3428 C   0  0  0  0  0  0
  -11.2720   15.1653   64.0764 C   0  0  0  0  0  0
  -10.2424   15.0083   65.0183 C   0  0  0  0  0  0
   -9.7431   16.1124   65.7127 C   0  0  0  0  0  0
  -10.2878   17.3778   65.4719 C   0  0  0  0  0  0
   -9.6135   18.7998   66.2887 S   0  0  0  0  0  0
   -9.3781   18.4471   67.6850 O   0  0  0  0  0  0
   -8.5999   19.3721   65.4600 O   0  0  0  0  0  0
  -10.9121   19.8675   66.2502 N   0  0  0  0  0  0
  -11.3344   17.5437   64.5632 C   0  0  0  0  0  0
  -11.8311   16.4375   63.8745 C   0  0  0  0  0  0
  -11.6604   12.1938   65.1520 C   0  0  0  0  0  0
  -13.0933    8.8527   71.2743 C   0  0  0  0  0  0
  -11.6724    8.2828   71.1232 C   0  0  0  0  0  0
  -11.6028    6.8473   71.3132 N   0  0  0  0  0  0
  -11.4559    6.2591   72.5552 C   0  0  0  0  0  0
  -11.3322    6.9119   73.5863 O   0  0  0  0  0  0
  -11.3156    4.7323   72.5174 C   0  0  0  0  0  0
  -10.0725    4.2664   71.7400 C   0  0  0  0  0  0
   -8.7676    4.3740   72.5349 C   0  0  0  0  0  0
   -8.8616    3.7209   73.9111 C   0  0  0  0  0  0
  -10.0855    4.1924   74.6911 C   0  0  0  0  0  0
  -11.3804    4.0596   73.8941 C   0  0  0  0  0  0
   -8.9437    2.3047   73.7624 O   0  0  0  0  0  0
  -12.5581    9.6995   68.9482 H   0  0  0  0  0  0
  -11.3873    9.6112   67.2059 H   0  0  0  0  0  0
  -11.7143   19.5516   66.7969 H   0  0  0  0  0  0
  -11.1546   20.0502   65.2771 H   0  0  0  0  0  0
  -11.7385    6.2624   70.5020 H   0  0  0  0  0  0
   -8.9253    1.9204   74.6576 H   0  0  0  0  0  0
  1  2  2  0  0  0
  1  6  1  0  0  0
  1 28  1  0  0  0
  2  3  1  0  0  0
  3  4  2  0  0  0
  4  5  1  0  0  0
  5  6  2  0  0  0
  6  7  1  0  0  0
  7  8  1  0  0  0
  7 40  1  0  0  0
  8  9  2  0  0  0
  8 10  1  0  0  0
 10 11  1  0  0  0
 10 41  1  0  0  0
 11 12  2  0  0  0
 11 27  1  0  0  0
 12 13  1  0  0  0
 13 14  2  0  0  0
 14 15  1  0  0  0
 15 16  1  0  0  0
 15 27  2  0  0  0
 16 17  1  0  0  0
 17 18  2  0  0  0
 17 26  1  0  0  0
 18 19  1  0  0  0
 19 20  2  0  0  0
 20 21  1  0  0  0
 20 25  1  0  0  0
 21 22  2  0  0  0
 21 23  2  0  0  0
 21 24  1  0  0  0
 24 42  1  0  0  0
 24 43  1  0  0  0
 25 26  2  0  0  0
 28 29  1  0  0  0
 29 30  1  0  0  0
 30 31  1  0  0  0
 30 44  1  0  0  0
 31 32  2  0  0  0
 31 33  1  0  0  0
 33 34  1  0  0  0
 33 38  1  0  0  0
 34 35  1  0  0  0
 35 36  1  0  0  0
 36 37  1  0  0  0
 36 39  1  0  0  0
 37 38  1  0  0  0
 39 45  1  0  0  0
M  END
>  <AUTHOR>
    GENERATED BY OPEN BABEL 2.3.2

>  <CHROM.1>
-117.72979864,173.39828797,161.46210066,-116.72173846,8.51692984,-43.34938942
64.82693031,168.37013251,-86.32909925,61.66123755,175.26418475,-11.11170862
11.42670619,68.65730176,1.66348933,-1.37654881,2.64847613

>  <COMPND>
    mol1_3d.pdb 

>  <MASTER>
        0    0    0    0    0    0    0    0   72    0   72    0

>  <Name>
ligands/mol1.pdb

>  <RI>
7.69155e+06

>  <Rbt.Current_Directory>
/home/rodrigo/Desktop/Rodrigo/Proyectos/test_OCONDOR/OCONDOR

>  <Rbt.Executable>
rbdock ($Id: //depot/dev/client3/rdock/2013.1/src/exe/rbdock.cxx#4 $)

>  <Rbt.Library>
libRbt.so (2013.1, Build901 2013/11/27)

>  <Rbt.Parameter_File>
dock.prm

>  <Rbt.Receptor>
rdock.prm

>  <SCORE>
-20.2522

>  <SCORE.INTER>
-21.4439

>  <SCORE.INTER.CONST>
1

>  <SCORE.INTER.POLAR>
-0.816326

>  <SCORE.INTER.REPUL>
0

>  <SCORE.INTER.ROT>
10

>  <SCORE.INTER.VDW>
-34.0684

>  <SCORE.INTER.norm>
-0.549843

>  <SCORE.INTRA>
1.19172

>  <SCORE.INTRA.DIHEDRAL>
-1.44074

>  <SCORE.INTRA.DIHEDRAL.0>
8.24127

>  <SCORE.INTRA.POLAR>
0

>  <SCORE.INTRA.POLAR.0>
0

>  <SCORE.INTRA.REPUL>
0

>  <SCORE.INTRA.REPUL.0>
0

>  <SCORE.INTRA.VDW>
1.91209

>  <SCORE.INTRA.VDW.0>
-4.15137

>  <SCORE.INTRA.norm>
0.0305569

>  <SCORE.RESTR>
0

>  <SCORE.RESTR.CAVITY>
0

>  <SCORE.RESTR.norm>
0

>  <SCORE.SYSTEM>
0

>  <SCORE.SYSTEM.CONST>
0

>  <SCORE.SYSTEM.DIHEDRAL>
0

>  <SCORE.SYSTEM.norm>
0

>  <SCORE.heavy>
39

>  <SCORE.norm>
-0.519286

$$$$
ligands/mol1.pdb
  rDOCK(R)          3D
libRbt.so/2013.1/901 2013/11/27
 45 48  0  0  0  0  0  0  0  0999 V2000
  -10.4176   13.0967   68.1875 C   0  0  0  0  0  0
   -9.7010   14.3039   68.1445 C   0  0  0  0  0  0
  -10.3896   15.5054   68.1672 C   0  0  0  0  0  0
  -11.7277   15.5941   68.1689 N   0  0  0  0  0  0
  -12.4102   14.4218   68.2155 C   0  0  0  0  0  0
  -11.8186   13.1583   68.2974 C   0  0  0  0  0  0
  -12.5504   11.9652   68.5141 N   0  0  0  0  0  0
  -12.4358   11.1196   69.6001 C   0  0  0  0  0  0
  -11.5870   11.2418   70.4718 O   0  0  0  0  0  0
  -13.4012   10.1210   69.5589 N   0  0  0  0  0  0
  -13.5627    9.0851   70.5074 C   0  0  0  0  0  0
  -14.7863    8.8087   71.1216 C   0  0  0  0  0  0
  -14.9251    7.7332   71.9880 C   0  0  0  0  0  0
  -13.8310    6.9353   72.2802 C   0  0  0  0  0  0
  -12.5738    7.2023   71.7195 C   0  0  0  0  0  0
  -11.3614    6.3524   72.0421 C   0  0  0  0  0  0
  -10.3152    7.0111   72.9234 C   0  0  0  0  0  0
  -10.1634    6.6102   74.2606 C   0  0  0  0  0  0
   -9.2182    7.2281   75.0824 C   0  0  0  0  0  0
   -8.4311    8.2620   74.5655 C   0  0  0  0  0  0
   -7.1748    9.0042   75.5730 S   0  0  0  0  0  0
   -6.2026    9.6360   74.6869 O   0  0  0  0  0  0
   -7.7995    9.7039   76.6509 O   0  0  0  0  0  0
   -6.4359    7.6550   76.2523 N   0  0  0  0  0  0
   -8.5943    8.6937   73.2481 C   0  0  0  0  0  0
   -9.5414    8.0751   72.4325 C   0  0  0  0  0  0
  -12.4524    8.2880   70.8273 C   0  0  0  0  0  0
   -9.6448   11.7979   68.0871 C   0  0  0  0  0  0
  -10.2970   10.6979   67.2321 C   0  0  0  0  0  0
  -10.7282   11.1601   65.9275 N   0  0  0  0  0  0
  -10.5487   10.4242   64.7715 C   0  0  0  0  0  0
   -9.9730    9.3411   64.7591 O   0  0  0  0  0  0
  -10.9989   11.1399   63.4919 C   0  0  0  0  0  0
  -12.5230   11.3382   63.4239 C   0  0  0  0  0  0
  -13.0342   12.5098   64.2679 C   0  0  0  0  0  0
  -12.2744   13.8054   63.9971 C   0  0  0  0  0  0
  -10.7625   13.6156   64.0788 C   0  0  0  0  0  0
  -10.2655   12.4583   63.2166 C   0  0  0  0  0  0
  -12.5959   14.2830   62.6920 O   0  0  0  0  0  0
  -13.0587   11.5995   67.7283 H   0  0  0  0  0  0
  -14.1594   10.2543   68.9085 H   0  0  0  0  0  0
   -7.0283    7.1607   76.9209 H   0  0  0  0  0  0
   -5.5470    7.9416   76.6607 H   0  0  0  0  0  0
  -11.2423   12.0276   65.8866 H   0  0  0  0  0  0
  -12.1223   15.1258   62.5700 H   0  0  0  0  0  0
  1  2  2  0  0  0
  1  6  1  0  0  0
  1 28  1  0  0  0
  2  3  1  0  0  0
  3  4  2  0  0  0
  4  5  1  0  0  0
  5  6  2  0  0  0
  6  7  1  0  0  0
  7  8  1  0  0  0
  7 40  1  0  0  0
  8  9  2  0  0  0
  8 10  1  0  0  0
 10 11  1  0  0  0
 10 41  1  0  0  0
 11 12  2  0  0  0
 11 27  1  0  0  0
 12 13  1  0  0  0
 13 14  2  0  0  0
 14 15  1  0  0  0
 15 16  1  0  0  0
 15 27  2  0  0  0
 16 17  1  0  0  0
 17 18  2  0  0  0
 17 26  1  0  0  0
 18 19  1  0  0  0
 19 20  2  0  0  0
 20 21  1  0  0  0
 20 25  1  0  0  0
 21 22  2  0  0  0
 21 23  2  0  0  0
 21 24  1  0  0  0
 24 42  1  0  0  0
 24 43  1  0  0  0
 25 26  2  0  0  0
 28 29  1  0  0  0
 29 30  1  0  0  0
 30 31  1  0  0  0
 30 44  1  0  0  0
 31 32  2  0  0  0
 31 33  1  0  0  0
 33 34  1  0  0  0
 33 38  1  0  0  0
 34 35  1  0  0  0
 35 36  1  0  0  0
 36 37  1  0  0  0
 36 39  1  0  0  0
 37 38  1  0  0  0
 39 45  1  0  0  0
M  END
>  <AUTHOR>
    GENERATED BY OPEN BABEL 2.3.2

>  <CHROM.1>
-140.06101280,61.16968922,128.15818933,-108.34323653,107.32419994,158.21631796
-68.89940002,49.36657849,138.21693824,-67.62551063,177.76412862,-10.78682986
10.48212741,69.64617779,-1.87552290,0.61241891,2.19976727

>  <COMPND>
    mol1_3d.pdb 

>  <MASTER>
        0    0    0    0    0    0    0    0   72    0   72    0

>  <Name>
ligands/mol1.pdb

>  <RI>
7.69155e+06

>  <Rbt.Current_Directory>
/home/rodrigo/Desktop/Rodrigo/Proyectos/test_OCONDOR/OCONDOR

>  <Rbt.Executable>
rbdock ($Id: //depot/dev/client3/rdock/2013.1/src/exe/rbdock.cxx#4 $)

>  <Rbt.Library>
libRbt.so (2013.1, Build901 2013/11/27)

>  <Rbt.Parameter_File>
dock.prm

>  <Rbt.Receptor>
rdock.prm

>  <SCORE>
-12.8877

>  <SCORE.INTER>
-19.452

>  <SCORE.INTER.CONST>
1

>  <SCORE.INTER.POLAR>
-2.02949

>  <SCORE.INTER.REPUL>
0

>  <SCORE.INTER.ROT>
10

>  <SCORE.INTER.VDW>
-27.9517

>  <SCORE.INTER.norm>
-0.49877

>  <SCORE.INTRA>
6.56434

>  <SCORE.INTRA.DIHEDRAL>
15.1796

>  <SCORE.INTRA.DIHEDRAL.0>
8.24127

>  <SCORE.INTRA.POLAR>
0

>  <SCORE.INTRA.POLAR.0>
0

>  <SCORE.INTRA.REPUL>
0

>  <SCORE.INTRA.REPUL.0>
0

>  <SCORE.INTRA.VDW>
-1.02547

>  <SCORE.INTRA.VDW.0>
-4.15137

>  <SCORE.INTRA.norm>
0.168316

>  <SCORE.RESTR>
0

>  <SCORE.RESTR.CAVITY>
0

>  <SCORE.RESTR.norm>
0

>  <SCORE.SYSTEM>
0

>  <SCORE.SYSTEM.CONST>
0

>  <SCORE.SYSTEM.DIHEDRAL>
0

>  <SCORE.SYSTEM.norm>
0

>  <SCORE.heavy>
39

>  <SCORE.norm>
-0.330453

$$$$
ligands/mol1.pdb
  rDOCK(R)          3D
libRbt.so/2013.1/901 2013/11/27
 45 48  0  0  0  0  0  0  0  0999 V2000
  -12.1452   14.0263   66.1266 C   0  0  0  0  0  0
  -12.2483   15.0441   65.1643 C   0  0  0  0  0  0
  -12.1124   14.7285   63.8225 C   0  0  0  0  0  0
  -11.8246   13.4975   63.3751 N   0  0  0  0  0  0
  -11.7321   12.5207   64.3129 C   0  0  0  0  0  0
  -11.9497   12.7065   65.6809 C   0  0  0  0  0  0
  -12.0128   11.6428   66.6138 N   0  0  0  0  0  0
  -11.1466   11.4243   67.6671 C   0  0  0  0  0  0
  -10.1288   12.0748   67.8579 O   0  0  0  0  0  0
  -11.5837   10.3723   68.4626 N   0  0  0  0  0  0
  -10.9308    9.8783   69.6152 C   0  0  0  0  0  0
   -9.5526    9.9950   69.8099 C   0  0  0  0  0  0
   -8.9582    9.5693   70.9897 C   0  0  0  0  0  0
   -9.7303    8.9882   71.9823 C   0  0  0  0  0  0
  -11.1109    8.8123   71.8115 C   0  0  0  0  0  0
  -11.9686    8.1616   72.8778 C   0  0  0  0  0  0
  -11.4633    6.8294   73.4023 C   0  0  0  0  0  0
  -11.9420    5.6273   72.8566 C   0  0  0  0  0  0
  -11.4978    4.3987   73.3503 C   0  0  0  0  0  0
  -10.5800    4.3748   74.4052 C   0  0  0  0  0  0
   -9.9488    2.8251   74.9920 S   0  0  0  0  0  0
  -10.2650    2.7196   76.4127 O   0  0  0  0  0  0
  -10.2855    1.8027   74.0524 O   0  0  0  0  0  0
   -8.2885    3.0574   74.8608 N   0  0  0  0  0  0
  -10.1212    5.5613   74.9798 C   0  0  0  0  0  0
  -10.5700    6.7854   74.4849 C   0  0  0  0  0  0
  -11.7034    9.2658   70.6144 C   0  0  0  0  0  0
  -12.2242   14.4097   67.5898 C   0  0  0  0  0  0
  -11.0274   15.2070   68.1361 C   0  0  0  0  0  0
  -10.3983   16.0565   67.1440 N   0  0  0  0  0  0
  -10.5650   17.4282   67.1134 C   0  0  0  0  0  0
  -11.2924   18.0242   67.9011 O   0  0  0  0  0  0
   -9.8819   18.1203   65.9275 C   0  0  0  0  0  0
  -10.3013   19.5924   65.7732 C   0  0  0  0  0  0
   -9.5954   20.5434   66.7445 C   0  0  0  0  0  0
   -8.0786   20.3752   66.7344 C   0  0  0  0  0  0
   -7.6586   18.9177   66.9025 C   0  0  0  0  0  0
   -8.3542   17.9854   65.9144 C   0  0  0  0  0  0
   -7.5540   20.8525   65.4968 O   0  0  0  0  0  0
  -12.6211   10.8770   66.3834 H   0  0  0  0  0  0
  -12.5314   10.0618   68.3176 H   0  0  0  0  0  0
   -7.9368    3.8168   75.4457 H   0  0  0  0  0  0
   -8.0544    3.1864   73.8771 H   0  0  0  0  0  0
   -9.7583   15.6217   66.4960 H   0  0  0  0  0  0
   -7.7927   21.7947   65.4281 H   0  0  0  0  0  0
  1  2  2  0  0  0
  1  6  1  0  0  0
  1 28  1  0  0  0
  2  3  1  0  0  0
  3  4  2  0  0  0
  4  5  1  0  0  0
  5  6  2  0  0  0
  6  7  1  0  0  0
  7  8  1  0  0  0
  7 40  1  0  0  0
  8  9  2  0  0  0
  8 10  1  0  0  0
 10 11  1  0  0  0
 10 41  1  0  0  0
 11 12  2  0  0  0
 11 27  1  0  0  0
 12 13  1  0  0  0
 13 14  2  0  0  0
 14 15  1  0  0  0
 15 16  1  0  0  0
 15 27  2  0  0  0
 16 17  1  0  0  0
 17 18  2  0  0  0
 17 26  1  0  0  0
 18 19  1  0  0  0
 19 20  2  0  0  0
 20 21  1  0  0  0
 20 25  1  0  0  0
 21 22  2  0  0  0
 21 23  2  0  0  0
 21 24  1  0  0  0
 24 42  1  0  0  0
 24 43  1  0  0  0
 25 26  2  0  0  0
 28 29  1  0  0  0
 29 30  1  0  0  0
 30 31  1  0  0  0
 30 44  1  0  0  0
 31 32  2  0  0  0
 31 33  1  0  0  0
 33 34  1  0  0  0
 33 38  1  0  0  0
 34 35  1  0  0  0
 35 36  1  0  0  0
 36 37  1  0  0  0
 36 39  1  0  0  0
 37 38  1  0  0  0
 39 45  1  0  0  0
M  END
>  <AUTHOR>
    GENERATED BY OPEN BABEL 2.3.2

>  <CHROM.1>
-69.25187240,-65.00449984,-26.47880124,-50.67109558,-95.13893064,-122.22188567
62.15166094,31.04831827,104.74763495,169.18442451,60.15779557,-10.52109429
11.38702752,69.47365657,1.53389404,-0.95564749,-0.58398090

>  <COMPND>
    mol1_3d.pdb 

>  <MASTER>
        0    0    0    0    0    0    0    0   72    0   72    0

>  <Name>
ligands/mol1.pdb

>  <RI>
7.69155e+06

>  <Rbt.Current_Directory>
/home/rodrigo/Desktop/Rodrigo/Proyectos/test_OCONDOR/OCONDOR

>  <Rbt.Executable>
rbdock ($Id: //depot/dev/client3/rdock/2013.1/src/exe/rbdock.cxx#4 $)

>  <Rbt.Library>
libRbt.so (2013.1, Build901 2013/11/27)

>  <Rbt.Parameter_File>
dock.prm

>  <Rbt.Receptor>
rdock.prm

>  <SCORE>
-14.44

>  <SCORE.INTER>
-19.2366

>  <SCORE.INTER.CONST>
1

>  <SCORE.INTER.POLAR>
-1.95134

>  <SCORE.INTER.REPUL>
0

>  <SCORE.INTER.ROT>
10

>  <SCORE.INTER.VDW>
-28.0021

>  <SCORE.INTER.norm>
-0.493247

>  <SCORE.INTRA>
4.79665

>  <SCORE.INTRA.DIHEDRAL>
10.4761

>  <SCORE.INTRA.DIHEDRAL.0>
8.24127

>  <SCORE.INTRA.POLAR>
0

>  <SCORE.INTRA.POLAR.0>
0

>  <SCORE.INTRA.REPUL>
0

>  <SCORE.INTRA.REPUL.0>
0

>  <SCORE.INTRA.VDW>
-0.441398

>  <SCORE.INTRA.VDW.0>
-4.15137

>  <SCORE.INTRA.norm>
0.122991

>  <SCORE.RESTR>
0

>  <SCORE.RESTR.CAVITY>
0

>  <SCORE.RESTR.norm>
0

>  <SCORE.SYSTEM>
0

>  <SCORE.SYSTEM.CONST>
0

>  <SCORE.SYSTEM.DIHEDRAL>
0

>  <SCORE.SYSTEM.norm>
0

>  <SCORE.heavy>
39

>  <SCORE.norm>
-0.370256

$$$$
ligands/mol1.pdb
  rDOCK(R)          3D
libRbt.so/2013.1/901 2013/11/27
 45 48  0  0  0  0  0  0  0  0999 V2000
  -11.9873    8.8349   70.3698 C   0  0  0  0  0  0
  -12.3291    7.6094   70.9646 C   0  0  0  0  0  0
  -13.6375    7.3863   71.3606 C   0  0  0  0  0  0
  -14.6090    8.3058   71.2643 N   0  0  0  0  0  0
  -14.2692    9.4845   70.6835 C   0  0  0  0  0  0
  -13.0082    9.7793   70.1580 C   0  0  0  0  0  0
  -12.7272   10.9481   69.4092 N   0  0  0  0  0  0
  -12.1521   10.9989   68.1546 C   0  0  0  0  0  0
  -11.7007   10.0229   67.5724 O   0  0  0  0  0  0
  -12.1515   12.2967   67.6582 N   0  0  0  0  0  0
  -11.6315   12.7056   66.4087 C   0  0  0  0  0  0
  -10.9240   11.8437   65.5674 C   0  0  0  0  0  0
  -10.4977   12.2584   64.3133 C   0  0  0  0  0  0
  -10.7439   13.5554   63.8934 C   0  0  0  0  0  0
  -11.4129   14.4668   64.7227 C   0  0  0  0  0  0
  -11.6744   15.8949   64.2884 C   0  0  0  0  0  0
  -10.8010   16.9495   64.9443 C   0  0  0  0  0  0
  -11.1891   18.2990   64.9278 C   0  0  0  0  0  0
  -10.3787   19.2763   65.5096 C   0  0  0  0  0  0
   -9.1671   18.9012   66.0985 C   0  0  0  0  0  0
   -8.1640   20.1188   66.9082 S   0  0  0  0  0  0
   -9.0509   21.1388   67.4581 O   0  0  0  0  0  0
   -7.1761   19.4538   67.6977 O   0  0  0  0  0  0
   -7.3451   20.8084   65.6114 N   0  0  0  0  0  0
   -8.7525   17.5682   66.0927 C   0  0  0  0  0  0
   -9.5642   16.5966   65.5080 C   0  0  0  0  0  0
  -11.8555   14.0258   65.9873 C   0  0  0  0  0  0
  -10.5359    9.0812   70.0137 C   0  0  0  0  0  0
   -9.5603    9.1513   71.2011 C   0  0  0  0  0  0
   -9.3056    7.8635   71.8160 N   0  0  0  0  0  0
   -9.9453    7.4388   72.9652 C   0  0  0  0  0  0
  -10.7476    8.1395   73.5736 O   0  0  0  0  0  0
   -9.4607    6.0825   73.4923 C   0  0  0  0  0  0
   -7.9831    6.1020   73.9201 C   0  0  0  0  0  0
   -7.7441    6.7306   75.2963 C   0  0  0  0  0  0
   -8.6464    6.1411   76.3769 C   0  0  0  0  0  0
  -10.1149    6.1342   75.9619 C   0  0  0  0  0  0
  -10.3398    5.4862   74.5984 C   0  0  0  0  0  0
   -8.2513    4.7975   76.6475 O   0  0  0  0  0  0
  -12.7732   11.8217   69.9036 H   0  0  0  0  0  0
  -12.7331   12.9635   68.1406 H   0  0  0  0  0  0
   -6.4475   21.2203   65.8702 H   0  0  0  0  0  0
   -7.9624   21.4801   65.1565 H   0  0  0  0  0  0
   -8.6830    7.2318   71.3345 H   0  0  0  0  0  0
   -8.8239    4.4685   77.3640 H   0  0  0  0  0  0
  1  2  2  0  0  0
  1  6  1  0  0  0
  1 28  1  0  0  0
  2  3  1  0  0  0
  3  4  2  0  0  0
  4  5  1  0  0  0
  5  6  2  0  0  0
  6  7  1  0  0  0
  7  8  1  0  0  0
  7 40  1  0  0  0
  8  9  2  0  0  0
  8 10  1  0  0  0
 10 11  1  0  0  0
 10 41  1  0  0  0
 11 12  2  0  0  0
 11 27  1  0  0  0
 12 13  1  0  0  0
 13 14  2  0  0  0
 14 15  1  0  0  0
 15 16  1  0  0  0
 15 27  2  0  0  0
 16 17  1  0  0  0
 17 18  2  0  0  0
 17 26  1  0  0  0
 18 19  1  0  0  0
 19 20  2  0  0  0
 20 21  1  0  0  0
 20 25  1  0  0  0
 21 22  2  0  0  0
 21 23  2  0  0  0
 21 24  1  0  0  0
 24 42  1  0  0  0
 24 43  1  0  0  0
 25 26  2  0  0  0
 28 29  1  0  0  0
 29 30  1  0  0  0
 30 31  1  0  0  0
 30 44  1  0  0  0
 31 32  2  0  0  0
 31 33  1  0  0  0
 33 34  1  0  0  0
 33 38  1  0  0  0
 34 35  1  0  0  0
 35 36  1  0  0  0
 36 37  1  0  0  0
 36 39  1  0  0  0
 37 38  1  0  0  0
 39 45  1  0  0  0
M  END
>  <AUTHOR>
    GENERATED BY OPEN BABEL 2.3.2

>  <CHROM.1>
-64.72669540,52.08976581,-6.56954014,-105.54925618,-161.55794320,30.73612008
-154.22365348,72.50222142,-98.78275787,63.36110952,177.75828881,-10.41232727
12.13341466,69.23278737,1.64731142,0.78759358,2.48864482

>  <COMPND>
    mol1_3d.pdb 

>  <MASTER>
        0    0    0    0    0    0    0    0   72    0   72    0

>  <Name>
ligands/mol1.pdb

>  <RI>
7.69155e+06

>  <Rbt.Current_Directory>
/home/rodrigo/Desktop/Rodrigo/Proyectos/test_OCONDOR/OCONDOR

>  <Rbt.Executable>
rbdock ($Id: //depot/dev/client3/rdock/2013.1/src/exe/rbdock.cxx#4 $)

>  <Rbt.Library>
libRbt.so (2013.1, Build901 2013/11/27)

>  <Rbt.Parameter_File>
dock.prm

>  <Rbt.Receptor>
rdock.prm

>  <SCORE>
-13.5843

>  <SCORE.INTER>
-18.1739

>  <SCORE.INTER.CONST>
1

>  <SCORE.INTER.POLAR>
-0.848528

>  <SCORE.INTER.REPUL>
0

>  <SCORE.INTER.ROT>
10

>  <SCORE.INTER.VDW>
-30.6889

>  <SCORE.INTER.norm>
-0.465997

>  <SCORE.INTRA>
4.58958

>  <SCORE.INTRA.DIHEDRAL>
8.24665

>  <SCORE.INTRA.DIHEDRAL.0>
8.24127

>  <SCORE.INTRA.POLAR>
0

>  <SCORE.INTRA.POLAR.0>
0

>  <SCORE.INTRA.REPUL>
0

>  <SCORE.INTRA.REPUL.0>
0

>  <SCORE.INTRA.VDW>
0.466253

>  <SCORE.INTRA.VDW.0>
-4.15137

>  <SCORE.INTRA.norm>
0.117682

>  <SCORE.RESTR>
0

>  <SCORE.RESTR.CAVITY>
0

>  <SCORE.RESTR.norm>
0

>  <SCORE.SYSTEM>
0

>  <SCORE.SYSTEM.CONST>
0

>  <SCORE.SYSTEM.DIHEDRAL>
0

>  <SCORE.SYSTEM.norm>
0

>  <SCORE.heavy>
39

>  <SCORE.norm>
-0.348315

$$$$
ligands/mol1.pdb
  rDOCK(R)          3D
libRbt.so/2013.1/901 2013/11/27
 45 48  0  0  0  0  0  0  0  0999 V2000
  -11.8336    8.9291   70.9822 C   0  0  0  0  0  0
  -11.7695    7.5559   71.2703 C   0  0  0  0  0  0
  -11.4028    6.6675   70.2729 C   0  0  0  0  0  0
  -11.1557    7.0339   69.0068 N   0  0  0  0  0  0
  -11.2155    8.3635   68.7405 C   0  0  0  0  0  0
  -11.4762    9.3552   69.6902 C   0  0  0  0  0  0
  -11.3671   10.7416   69.4225 N   0  0  0  0  0  0
  -10.6637   11.3231   68.3859 C   0  0  0  0  0  0
   -9.9391   10.7016   67.6216 O   0  0  0  0  0  0
  -10.8860   12.6939   68.3393 N   0  0  0  0  0  0
  -10.3153   13.5947   67.4109 C   0  0  0  0  0  0
  -10.1647   13.2877   66.0567 C   0  0  0  0  0  0
   -9.6736   14.2269   65.1605 C   0  0  0  0  0  0
   -9.2932   15.4802   65.6119 C   0  0  0  0  0  0
   -9.3872   15.8165   66.9699 C   0  0  0  0  0  0
   -8.9582   17.1754   67.4852 C   0  0  0  0  0  0
   -8.1214   18.0049   66.5276 C   0  0  0  0  0  0
   -8.5397   19.2933   66.1572 C   0  0  0  0  0  0
   -7.7857   20.0520   65.2593 C   0  0  0  0  0  0
   -6.6143   19.5116   64.7194 C   0  0  0  0  0  0
   -5.6063   20.4908   63.6380 S   0  0  0  0  0  0
   -6.2993   20.6059   62.3589 O   0  0  0  0  0  0
   -5.1268   21.6288   64.3566 O   0  0  0  0  0  0
   -4.2774   19.4875   63.4030 N   0  0  0  0  0  0
   -6.2041   18.2196   65.0526 C   0  0  0  0  0  0
   -6.9620   17.4652   65.9476 C   0  0  0  0  0  0
   -9.9045   14.8576   67.8657 C   0  0  0  0  0  0
  -12.3082    9.8704   72.0698 C   0  0  0  0  0  0
  -13.7549   10.3746   71.9311 C   0  0  0  0  0  0
  -13.9257   11.7568   72.3335 N   0  0  0  0  0  0
  -13.3776   12.8167   71.6360 C   0  0  0  0  0  0
  -12.6704   12.6623   70.6458 O   0  0  0  0  0  0
  -13.6078   14.1863   72.2866 C   0  0  0  0  0  0
  -12.5378   14.5364   73.3351 C   0  0  0  0  0  0
  -11.2203   15.0351   72.7338 C   0  0  0  0  0  0
  -11.4236   16.1611   71.7238 C   0  0  0  0  0  0
  -12.4736   15.8110   70.6732 C   0  0  0  0  0  0
  -13.7876   15.3358   71.2874 C   0  0  0  0  0  0
  -11.8468   17.3413   72.4039 O   0  0  0  0  0  0
  -11.6659   11.3659   70.1510 H   0  0  0  0  0  0
  -11.6560   13.0441   68.8871 H   0  0  0  0  0  0
   -3.8143   19.2163   64.2715 H   0  0  0  0  0  0
   -3.6396   19.9397   62.7491 H   0  0  0  0  0  0
  -14.5312   11.9423   73.1194 H   0  0  0  0  0  0
  -11.8960   18.0531   71.7402 H   0  0  0  0  0  0
  1  2  2  0  0  0
  1  6  1  0  0  0
  1 28  1  0  0  0
  2  3  1  0  0  0
  3  4  2  0  0  0
  4  5  1  0  0  0
  5  6  2  0  0  0
  6  7  1  0  0  0
  7  8  1  0  0  0
  7 40  1  0  0  0
  8  9  2  0  0  0
  8 10  1  0  0  0
 10 11  1  0  0  0
 10 41  1  0  0  0
 11 12  2  0  0  0
 11 27  1  0  0  0
 12 13  1  0  0  0
 13 14  2  0  0  0
 14 15  1  0  0  0
 15 16  1  0  0  0
 15 27  2  0  0  0
 16 17  1  0  0  0
 17 18  2  0  0  0
 17 26  1  0  0  0
 18 19  1  0  0  0
 19 20  2  0  0  0
 20 21  1  0  0  0
 20 25  1  0  0  0
 21 22  2  0  0  0
 21 23  2  0  0  0
 21 24  1  0  0  0
 24 42  1  0  0  0
 24 43  1  0  0  0
 25 26  2  0  0  0
 28 29  1  0  0  0
 29 30  1  0  0  0
 30 31  1  0  0  0
 30 44  1  0  0  0
 31 32  2  0  0  0
 31 33  1  0  0  0
 33 34  1  0  0  0
 33 38  1  0  0  0
 34 35  1  0  0  0
 35 36  1  0  0  0
 36 37  1  0  0  0
 36 39  1  0  0  0
 37 38  1  0  0  0
 39 45  1  0  0  0
M  END
>  <AUTHOR>
    GENERATED BY OPEN BABEL 2.3.2

>  <CHROM.1>
-102.82348452,159.13434805,40.55217844,-14.38887947,123.61035350,-72.82793985
-56.98389833,-142.53732269,67.62497254,86.37394105,175.51441074,-10.03399352
14.59552993,68.32690068,-2.47862233,0.93870562,0.18053153

>  <COMPND>
    mol1_3d.pdb 

>  <MASTER>
        0    0    0    0    0    0    0    0   72    0   72    0

>  <Name>
ligands/mol1.pdb

>  <RI>
7.69155e+06

>  <Rbt.Current_Directory>
/home/rodrigo/Desktop/Rodrigo/Proyectos/test_OCONDOR/OCONDOR

>  <Rbt.Executable>
rbdock ($Id: //depot/dev/client3/rdock/2013.1/src/exe/rbdock.cxx#4 $)

>  <Rbt.Library>
libRbt.so (2013.1, Build901 2013/11/27)

>  <Rbt.Parameter_File>
dock.prm

>  <Rbt.Receptor>
rdock.prm

>  <SCORE>
-15.0822

>  <SCORE.INTER>
-14.0385

>  <SCORE.INTER.CONST>
1

>  <SCORE.INTER.POLAR>
-0.610945

>  <SCORE.INTER.REPUL>
0

>  <SCORE.INTER.ROT>
10

>  <SCORE.INTER.VDW>
-27.3613

>  <SCORE.INTER.norm>
-0.359962

>  <SCORE.INTRA>
-1.04369

>  <SCORE.INTRA.DIHEDRAL>
10.52

>  <SCORE.INTRA.DIHEDRAL.0>
8.24127

>  <SCORE.INTRA.POLAR>
-1.78667

>  <SCORE.INTRA.POLAR.0>
0

>  <SCORE.INTRA.REPUL>
0

>  <SCORE.INTRA.REPUL.0>
0

>  <SCORE.INTRA.VDW>
-0.229011

>  <SCORE.INTRA.VDW.0>
-4.15137

>  <SCORE.INTRA.norm>
-0.0267613

>  <SCORE.RESTR>
0

>  <SCORE.RESTR.CAVITY>
0

>  <SCORE.RESTR.norm>
0

>  <SCORE.SYSTEM>
0

>  <SCORE.SYSTEM.CONST>
0

>  <SCORE.SYSTEM.DIHEDRAL>
0

>  <SCORE.SYSTEM.norm>
0

>  <SCORE.heavy>
39

>  <SCORE.norm>
-0.386723

$$$$
ligands/mol1.pdb
  rDOCK(R)          3D
libRbt.so/2013.1/901 2013/11/27
 45 48  0  0  0  0  0  0  0  0999 V2000
   -9.3059   17.5245   66.5640 C   0  0  0  0  0  0
   -9.2770   18.8240   66.0319 C   0  0  0  0  0  0
  -10.2573   19.7314   66.3978 C   0  0  0  0  0  0
  -11.2885   19.4269   67.1994 N   0  0  0  0  0  0
  -11.3040   18.1703   67.7120 C   0  0  0  0  0  0
  -10.3153   17.2076   67.4911 C   0  0  0  0  0  0
  -10.2683   15.9655   68.1700 N   0  0  0  0  0  0
  -11.2092   15.4805   69.0571 C   0  0  0  0  0  0
  -12.1634   16.1302   69.4605 O   0  0  0  0  0  0
  -10.9187   14.1730   69.4271 N   0  0  0  0  0  0
  -11.6685   13.3804   70.3263 C   0  0  0  0  0  0
  -12.4876   13.9309   71.3148 C   0  0  0  0  0  0
  -13.2703   13.1224   72.1273 C   0  0  0  0  0  0
  -13.2206   11.7452   71.9856 C   0  0  0  0  0  0
  -12.3802   11.1481   71.0352 C   0  0  0  0  0  0
  -12.2981    9.6432   70.8787 C   0  0  0  0  0  0
  -11.4383    8.9238   71.9026 C   0  0  0  0  0  0
  -12.0330    8.0970   72.8694 C   0  0  0  0  0  0
  -11.2493    7.4508   73.8278 C   0  0  0  0  0  0
   -9.8644    7.6451   73.8258 C   0  0  0  0  0  0
   -8.8482    6.7721   74.9875 S   0  0  0  0  0  0
   -8.5291    5.4683   74.4151 O   0  0  0  0  0  0
   -7.8440    7.6599   75.4824 O   0  0  0  0  0  0
   -9.9192    6.5165   76.2585 N   0  0  0  0  0  0
   -9.2631    8.4905   72.8919 C   0  0  0  0  0  0
  -10.0506    9.1355   71.9387 C   0  0  0  0  0  0
  -11.6039   11.9834   70.2050 C   0  0  0  0  0  0
   -8.2656   16.5305   66.0908 C   0  0  0  0  0  0
   -7.0913   16.2847   67.0536 C   0  0  0  0  0  0
   -6.5406   14.9468   66.9628 N   0  0  0  0  0  0
   -7.2459   13.8163   67.3301 C   0  0  0  0  0  0
   -8.3780   13.8661   67.7997 O   0  0  0  0  0  0
   -6.4421   12.5134   67.2370 C   0  0  0  0  0  0
   -5.0856   12.5963   67.9579 C   0  0  0  0  0  0
   -5.1807   12.4377   69.4784 C   0  0  0  0  0  0
   -5.9758   11.2024   69.8923 C   0  0  0  0  0  0
   -7.3286   11.1251   69.1905 C   0  0  0  0  0  0
   -7.2158   11.2636   67.6747 C   0  0  0  0  0  0
   -5.2350   10.0275   69.5676 O   0  0  0  0  0  0
   -9.3904   15.4769   68.1550 H   0  0  0  0  0  0
  -10.2316   13.6897   68.8705 H   0  0  0  0  0  0
  -10.2371    7.3795   76.7018 H   0  0  0  0  0  0
   -9.4881    5.8756   76.9237 H   0  0  0  0  0  0
   -5.6268   14.8458   66.5464 H   0  0  0  0  0  0
   -5.7588    9.2644   69.8725 H   0  0  0  0  0  0
  1  2  2  0  0  0
  1  6  1  0  0  0
  1 28  1  0  0  0
  2  3  1  0  0  0
  3  4  2  0  0  0
  4  5  1  0  0  0
  5  6  2  0  0  0
  6  7  1  0  0  0
  7  8  1  0  0  0
  7 40  1  0  0  0
  8  9  2  0  0  0
  8 10  1  0  0  0
 10 11  1  0  0  0
 10 41  1  0  0  0
 11 12  2  0  0  0
 11 27  1  0  0  0
 12 13  1  0  0  0
 13 14  2  0  0  0
 14 15  1  0  0  0
 15 16  1  0  0  0
 15 27  2  0  0  0
 16 17  1  0  0  0
 17 18  2  0  0  0
 17 26  1  0  0  0
 18 19  1  0  0  0
 19 20  2  0  0  0
 20 21  1  0  0  0
 20 25  1  0  0  0
 21 22  2  0  0  0
 21 23  2  0  0  0
 21 24  1  0  0  0
 24 42  1  0  0  0
 24 43  1  0  0  0
 25 26  2  0  0  0
 28 29  1  0  0  0
 29 30  1  0  0  0
 30 31  1  0  0  0
 30 44  1  0  0  0
 31 32  2  0  0  0
 31 33  1  0  0  0
 33 34  1  0  0  0
 33 38  1  0  0  0
 34 35  1  0  0  0
 35 36  1  0  0  0
 36 37  1  0  0  0
 36 39  1  0  0  0
 37 38  1  0  0  0
 39 45  1  0  0  0
M  END
>  <AUTHOR>
    GENERATED BY OPEN BABEL 2.3.2

>  <CHROM.1>
101.88901185,-176.76179905,-24.31137912,-79.28249790,110.53708254,85.78768529
-64.13997461,149.67083483,-66.29840776,50.97890994,178.14414327,-9.44204477
12.31400426,70.20147567,1.55439256,0.37544945,-0.61938712

>  <COMPND>
    mol1_3d.pdb 

>  <MASTER>
        0    0    0    0    0    0    0    0   72    0   72    0

>  <Name>
ligands/mol1.pdb

>  <RI>
7.69155e+06

>  <Rbt.Current_Directory>
/home/rodrigo/Desktop/Rodrigo/Proyectos/test_OCONDOR/OCONDOR

>  <Rbt.Executable>
rbdock ($Id: //depot/dev/client3/rdock/2013.1/src/exe/rbdock.cxx#4 $)

>  <Rbt.Library>
libRbt.so (2013.1, Build901 2013/11/27)

>  <Rbt.Parameter_File>
dock.prm

>  <Rbt.Receptor>
rdock.prm

>  <SCORE>
-17.6138

>  <SCORE.INTER>
-12.261

>  <SCORE.INTER.CONST>
1

>  <SCORE.INTER.POLAR>
-0.644926

>  <SCORE.INTER.REPUL>
0.00407249

>  <SCORE.INTER.ROT>
10

>  <SCORE.INTER.VDW>
-25.4887

>  <SCORE.INTER.norm>
-0.314386

>  <SCORE.INTRA>
-5.35276

>  <SCORE.INTRA.DIHEDRAL>
1.82782

>  <SCORE.INTRA.DIHEDRAL.0>
8.24127

>  <SCORE.INTRA.POLAR>
-1.90682

>  <SCORE.INTRA.POLAR.0>
0

>  <SCORE.INTRA.REPUL>
0

>  <SCORE.INTRA.REPUL.0>
0

>  <SCORE.INTRA.VDW>
0.216508

>  <SCORE.INTRA.VDW.0>
-4.15137

>  <SCORE.INTRA.norm>
-0.13725

>  <SCORE.RESTR>
0

>  <SCORE.RESTR.CAVITY>
0

>  <SCORE.RESTR.norm>
0

>  <SCORE.SYSTEM>
0

>  <SCORE.SYSTEM.CONST>
0

>  <SCORE.SYSTEM.DIHEDRAL>
0

>  <SCORE.SYSTEM.norm>
0

>  <SCORE.heavy>
39

>  <SCORE.norm>
-0.451636

$$$$
ligands/mol1.pdb
  rDOCK(R)          3D
libRbt.so/2013.1/901 2013/11/27
 45 48  0  0  0  0  0  0  0  0999 V2000
  -11.1959    7.0437   70.0949 C   0  0  0  0  0  0
  -10.9236    5.7299   70.5105 C   0  0  0  0  0  0
  -10.5886    4.7731   69.5667 C   0  0  0  0  0  0
  -10.5631    5.0095   68.2469 N   0  0  0  0  0  0
  -10.8228    6.2833   67.8567 C   0  0  0  0  0  0
  -11.0729    7.3477   68.7271 C   0  0  0  0  0  0
  -11.1737    8.6957   68.3045 N   0  0  0  0  0  0
  -11.0401    9.1611   67.0110 C   0  0  0  0  0  0
  -10.6973    8.4622   66.0679 O   0  0  0  0  0  0
  -11.3377   10.5162   66.9351 N   0  0  0  0  0  0
  -11.2926   11.3101   65.7660 C   0  0  0  0  0  0
  -10.9606   10.7898   64.5130 C   0  0  0  0  0  0
  -11.0044   11.5827   63.3747 C   0  0  0  0  0  0
  -11.3497   12.9204   63.4769 C   0  0  0  0  0  0
  -11.6489   13.4947   64.7206 C   0  0  0  0  0  0
  -12.0100   14.9602   64.8547 C   0  0  0  0  0  0
  -11.0640   15.7934   65.7009 C   0  0  0  0  0  0
  -11.3098   15.9676   67.0725 C   0  0  0  0  0  0
  -10.4557   16.7514   67.8513 C   0  0  0  0  0  0
   -9.3577   17.3747   67.2498 C   0  0  0  0  0  0
   -8.2216   18.3100   68.2390 S   0  0  0  0  0  0
   -7.1619   18.8009   67.3641 O   0  0  0  0  0  0
   -8.9627   19.1715   69.1052 O   0  0  0  0  0  0
   -7.5546   17.1171   69.2188 N   0  0  0  0  0  0
   -9.1200   17.2377   65.8811 C   0  0  0  0  0  0
   -9.9775   16.4562   65.1075 C   0  0  0  0  0  0
  -11.6172   12.6722   65.8661 C   0  0  0  0  0  0
  -11.6313    8.0519   71.1380 C   0  0  0  0  0  0
  -10.4997    8.6921   71.9603 C   0  0  0  0  0  0
   -9.6850    7.7265   72.6712 N   0  0  0  0  0  0
  -10.1369    7.0284   73.7751 C   0  0  0  0  0  0
  -11.2496    7.2054   74.2602 O   0  0  0  0  0  0
   -9.0819    6.1248   74.4252 C   0  0  0  0  0  0
   -7.8390    6.9005   74.8942 C   0  0  0  0  0  0
   -8.0338    7.6403   76.2212 C   0  0  0  0  0  0
   -8.5967    6.7414   77.3186 C   0  0  0  0  0  0
   -9.8389    5.9818   76.8616 C   0  0  0  0  0  0
   -9.6231    5.2328   75.5493 C   0  0  0  0  0  0
   -7.6086    5.7899   77.7095 O   0  0  0  0  0  0
  -11.1520    9.3963   69.0244 H   0  0  0  0  0  0
  -11.8019   10.9206   67.7329 H   0  0  0  0  0  0
   -8.2522   16.5149   69.6580 H   0  0  0  0  0  0
   -6.9419   17.5615   69.9015 H   0  0  0  0  0  0
   -8.7747    7.5141   72.2905 H   0  0  0  0  0  0
   -6.8656    6.2892   78.0944 H   0  0  0  0  0  0
  1  2  2  0  0  0
  1  6  1  0  0  0
  1 28  1  0  0  0
  2  3  1  0  0  0
  3  4  2  0  0  0
  4  5  1  0  0  0
  5  6  2  0  0  0
  6  7  1  0  0  0
  7  8  1  0  0  0
  7 40  1  0  0  0
  8  9  2  0  0  0
  8 10  1  0  0  0
 10 11  1  0  0  0
 10 41  1  0  0  0
 11 12  2  0  0  0
 11 27  1  0  0  0
 12 13  1  0  0  0
 13 14  2  0  0  0
 14 15  1  0  0  0
 15 16  1  0  0  0
 15 27  2  0  0  0
 16 17  1  0  0  0
 17 18  2  0  0  0
 17 26  1  0  0  0
 18 19  1  0  0  0
 19 20  2  0  0  0
 20 21  1  0  0  0
 20 25  1  0  0  0
 21 22  2  0  0  0
 21 23  2  0  0  0
 21 24  1  0  0  0
 24 42  1  0  0  0
 24 43  1  0  0  0
 25 26  2  0  0  0
 28 29  1  0  0  0
 29 30  1  0  0  0
 30 31  1  0  0  0
 30 44  1  0  0  0
 31 32  2  0  0  0
 31 33  1  0  0  0
 33 34  1  0  0  0
 33 38  1  0  0  0
 34 35  1  0  0  0
 35 36  1  0  0  0
 36 37  1  0  0  0
 36 39  1  0  0  0
 37 38  1  0  0  0
 39 45  1  0  0  0
M  END
>  <AUTHOR>
    GENERATED BY OPEN BABEL 2.3.2

>  <CHROM.1>
81.49642667,178.11495720,1.51338939,-117.92260550,-92.27367040,178.04161457
-48.87300754,-57.83466408,-71.78098357,58.82593543,63.80625304,-10.03997820
10.94615157,69.45881717,1.53299816,1.18348355,2.52457534

>  <COMPND>
    mol1_3d.pdb 

>  <MASTER>
        0    0    0    0    0    0    0    0   72    0   72    0

>  <Name>
ligands/mol1.pdb

>  <RI>
7.69155e+06

>  <Rbt.Current_Directory>
/home/rodrigo/Desktop/Rodrigo/Proyectos/test_OCONDOR/OCONDOR

>  <Rbt.Executable>
rbdock ($Id: //depot/dev/client3/rdock/2013.1/src/exe/rbdock.cxx#4 $)

>  <Rbt.Library>
libRbt.so (2013.1, Build901 2013/11/27)

>  <Rbt.Parameter_File>
dock.prm

>  <Rbt.Receptor>
rdock.prm

>  <SCORE>
-11.0431

>  <SCORE.INTER>
-10.7486

>  <SCORE.INTER.CONST>
1

>  <SCORE.INTER.POLAR>
0

>  <SCORE.INTER.REPUL>
0.0113269

>  <SCORE.INTER.ROT>
10

>  <SCORE.INTER.VDW>
-26.2052

>  <SCORE.INTER.norm>
-0.275604

>  <SCORE.INTRA>
-0.294553

>  <SCORE.INTRA.DIHEDRAL>
-2.17455

>  <SCORE.INTRA.DIHEDRAL.0>
8.24127

>  <SCORE.INTRA.POLAR>
0

>  <SCORE.INTRA.POLAR.0>
0

>  <SCORE.INTRA.REPUL>
0

>  <SCORE.INTRA.REPUL.0>
0

>  <SCORE.INTRA.VDW>
0.792724

>  <SCORE.INTRA.VDW.0>
-4.15137

>  <SCORE.INTRA.norm>
-0.00755264

>  <SCORE.RESTR>
0

>  <SCORE.RESTR.CAVITY>
0

>  <SCORE.RESTR.norm>
0

>  <SCORE.SYSTEM>
0

>  <SCORE.SYSTEM.CONST>
0

>  <SCORE.SYSTEM.DIHEDRAL>
0

>  <SCORE.SYSTEM.norm>
0

>  <SCORE.heavy>
39

>  <SCORE.norm>
-0.283157

$$$$
ligands/mol1.pdb
  rDOCK(R)          3D
libRbt.so/2013.1/901 2013/11/27
 45 48  0  0  0  0  0  0  0  0999 V2000
  -10.4812   12.5883   65.8379 C   0  0  0  0  0  0
  -11.0311   13.4662   64.8894 C   0  0  0  0  0  0
  -12.2780   14.0233   65.1200 C   0  0  0  0  0  0
  -13.0373   13.7281   66.1853 N   0  0  0  0  0  0
  -12.4943   12.8828   67.0979 C   0  0  0  0  0  0
  -11.2080   12.3423   67.0168 C   0  0  0  0  0  0
  -10.6047   11.6004   68.0615 N   0  0  0  0  0  0
  -11.2543   11.0071   69.1261 C   0  0  0  0  0  0
  -12.4455   11.1504   69.3625 O   0  0  0  0  0  0
  -10.3755   10.2425   69.8835 N   0  0  0  0  0  0
  -10.7056    9.5095   71.0466 C   0  0  0  0  0  0
  -12.0048    9.4474   71.5558 C   0  0  0  0  0  0
  -12.3056    8.6533   72.6537 C   0  0  0  0  0  0
  -11.3025    7.9331   73.2815 C   0  0  0  0  0  0
   -9.9766    7.9997   72.8302 C   0  0  0  0  0  0
   -8.8628    7.2343   73.5156 C   0  0  0  0  0  0
   -9.1150    6.8708   74.9680 C   0  0  0  0  0  0
   -8.3101    7.4138   75.9826 C   0  0  0  0  0  0
   -8.5230    7.0655   77.3182 C   0  0  0  0  0  0
   -9.5383    6.1583   77.6372 C   0  0  0  0  0  0
   -9.8706    5.7649   79.3339 S   0  0  0  0  0  0
   -8.6340    5.9438   80.0877 O   0  0  0  0  0  0
  -11.1007    6.3811   79.7194 O   0  0  0  0  0  0
  -10.1764    4.1134   79.2513 N   0  0  0  0  0  0
  -10.3242    5.5849   76.6360 C   0  0  0  0  0  0
  -10.1057    5.9340   75.3037 C   0  0  0  0  0  0
   -9.6894    8.7971   71.7027 C   0  0  0  0  0  0
   -9.1499   11.9362   65.5270 C   0  0  0  0  0  0
   -9.1763   10.8539   64.4340 C   0  0  0  0  0  0
   -9.6829    9.5772   64.8977 N   0  0  0  0  0  0
   -9.0165    8.7940   65.8212 C   0  0  0  0  0  0
   -7.9246    9.1037   66.2866 O   0  0  0  0  0  0
   -9.6862    7.4433   66.1029 C   0  0  0  0  0  0
   -8.7679    6.4682   66.8595 C   0  0  0  0  0  0
   -8.6751    6.7441   68.3633 C   0  0  0  0  0  0
  -10.0452    6.8712   69.0236 C   0  0  0  0  0  0
  -10.9535    7.8494   68.2842 C   0  0  0  0  0  0
  -11.0527    7.5493   66.7910 C   0  0  0  0  0  0
  -10.6841    5.5961   69.0458 O   0  0  0  0  0  0
   -9.6055   11.6682   68.1432 H   0  0  0  0  0  0
   -9.4795   10.0423   69.4678 H   0  0  0  0  0  0
  -10.8352    3.8584   78.5142 H   0  0  0  0  0  0
  -10.4800    3.7921   80.1699 H   0  0  0  0  0  0
  -10.5963    9.2932   64.5760 H   0  0  0  0  0  0
  -11.5351    5.7094   69.5067 H   0  0  0  0  0  0
  1  2  2  0  0  0
  1  6  1  0  0  0
  1 28  1  0  0  0
  2  3  1  0  0  0
  3  4  2  0  0  0
  4  5  1  0  0  0
  5  6  2  0  0  0
  6  7  1  0  0  0
  7  8  1  0  0  0
  7 40  1  0  0  0
  8  9  2  0  0  0
  8 10  1  0  0  0
 10 11  1  0  0  0
 10 41  1  0  0  0
 11 12  2  0  0  0
 11 27  1  0  0  0
 12 13  1  0  0  0
 13 14  2  0  0  0
 14 15  1  0  0  0
 15 16  1  0  0  0
 15 27  2  0  0  0
 16 17  1  0  0  0
 17 18  2  0  0  0
 17 26  1  0  0  0
 18 19  1  0  0  0
 19 20  2  0  0  0
 20 21  1  0  0  0
 20 25  1  0  0  0
 21 22  2  0  0  0
 21 23  2  0  0  0
 21 24  1  0  0  0
 24 42  1  0  0  0
 24 43  1  0  0  0
 25 26  2  0  0  0
 28 29  1  0  0  0
 29 30  1  0  0  0
 30 31  1  0  0  0
 30 44  1  0  0  0
 31 32  2  0  0  0
 31 33  1  0  0  0
 33 34  1  0  0  0
 33 38  1  0  0  0
 34 35  1  0  0  0
 35 36  1  0  0  0
 36 37  1  0  0  0
 36 39  1  0  0  0
 37 38  1  0  0  0
 39 45  1  0  0  0
M  END
>  <AUTHOR>
    GENERATED BY OPEN BABEL 2.3.2

>  <CHROM.1>
-71.42978041,-163.70752601,1.73605406,-23.64752277,-115.49775768,-27.65756930
-48.40225444,-78.39253035,-66.96190500,166.25382308,177.62294866,-10.25229967
8.62984864,71.01239043,1.70938713,1.10064653,-1.29470239

>  <COMPND>
    mol1_3d.pdb 

>  <MASTER>
        0    0    0    0    0    0    0    0   72    0   72    0

>  <Name>
ligands/mol1.pdb

>  <RI>
7.69155e+06

>  <Rbt.Current_Directory>
/home/rodrigo/Desktop/Rodrigo/Proyectos/test_OCONDOR/OCONDOR

>  <Rbt.Executable>
rbdock ($Id: //depot/dev/client3/rdock/2013.1/src/exe/rbdock.cxx#4 $)

>  <Rbt.Library>
libRbt.so (2013.1, Build901 2013/11/27)

>  <Rbt.Parameter_File>
dock.prm

>  <Rbt.Receptor>
rdock.prm

>  <SCORE>
-9.41597

>  <SCORE.INTER>
-8.78957

>  <SCORE.INTER.CONST>
1

>  <SCORE.INTER.POLAR>
0

>  <SCORE.INTER.REPUL>
0.0269474

>  <SCORE.INTER.ROT>
10

>  <SCORE.INTER.VDW>
-24.3243

>  <SCORE.INTER.norm>
-0.225374

>  <SCORE.INTRA>
-0.626401

>  <SCORE.INTRA.DIHEDRAL>
0.929738

>  <SCORE.INTRA.DIHEDRAL.0>
8.24127

>  <SCORE.INTRA.POLAR>
0

>  <SCORE.INTRA.POLAR.0>
0

>  <SCORE.INTRA.REPUL>
0

>  <SCORE.INTRA.REPUL.0>
0

>  <SCORE.INTRA.VDW>
-1.09127

>  <SCORE.INTRA.VDW.0>
-4.15137

>  <SCORE.INTRA.norm>
-0.0160616

>  <SCORE.RESTR>
0

>  <SCORE.RESTR.CAVITY>
0

>  <SCORE.RESTR.norm>
0

>  <SCORE.SYSTEM>
0

>  <SCORE.SYSTEM.CONST>
0

>  <SCORE.SYSTEM.DIHEDRAL>
0

>  <SCORE.SYSTEM.norm>
0

>  <SCORE.heavy>
39

>  <SCORE.norm>
-0.241435

$$$$
