ligands/mol6.pdb
  rDOCK(R)          3D
libRbt.so/2013.1/901 2013/11/27
 49 53  0  0  0  0  0  0  0  0999 V2000
  -14.1673   16.0991   73.4824 N   0  0  0  0  0  0
  -12.6614   15.3875   73.7156 S   0  0  0  0  0  0
  -11.9758   16.2441   74.6830 O   0  0  0  0  0  0
  -12.9184   14.0066   73.9590 O   0  0  0  0  0  0
  -11.8756   15.5916   72.1454 C   0  0  0  0  0  0
  -11.8026   16.8580   71.5638 C   0  0  0  0  0  0
  -11.2408   16.9992   70.2918 C   0  0  0  0  0  0
  -10.7467   15.8841   69.5976 C   0  0  0  0  0  0
  -10.1553   16.0516   68.2162 C   0  0  0  0  0  0
  -10.7902   15.1845   67.1519 C   0  0  0  0  0  0
  -11.1350   15.7420   65.9117 C   0  0  0  0  0  0
  -11.7249   14.9633   64.9149 C   0  0  0  0  0  0
  -11.9293   13.6035   65.1232 C   0  0  0  0  0  0
  -11.5572   13.0283   66.3354 C   0  0  0  0  0  0
  -11.7552   11.6611   66.5618 N   0  0  0  0  0  0
  -10.7915   10.8361   67.1056 C   0  0  0  0  0  0
   -9.5903   10.8699   66.8549 O   0  0  0  0  0  0
  -11.2691    9.9578   68.0569 N   0  0  0  0  0  0
  -11.7361   10.3197   69.3331 C   0  0  0  0  0  0
  -11.3406    9.6275   70.4906 C   0  0  0  0  0  0
  -11.8735   10.0864   71.7073 C   0  0  0  0  0  0
  -12.7648   11.1447   71.7305 C   0  0  0  0  0  0
  -13.1055   11.8495   70.6408 N   0  0  0  0  0  0
  -12.5855   11.4258   69.4707 C   0  0  0  0  0  0
  -10.3820    8.4277   70.4995 C   0  0  0  0  0  0
   -9.7321    8.1465   71.8898 C   0  0  0  0  0  0
  -10.6728    7.7908   72.9537 N   0  0  0  0  0  0
  -10.6789    6.5545   73.5848 C   0  0  0  0  0  0
  -11.5295    5.6953   73.3781 O   0  0  0  0  0  0
   -9.4742    6.3389   74.5230 C   0  0  0  0  0  0
   -9.8606    6.1934   76.0091 C   0  0  0  0  0  0
  -10.1572    4.7682   76.4900 C   0  0  0  0  0  0
   -9.1279    3.7566   75.9989 C   0  0  0  0  0  0
   -7.8811    4.0514   76.6281 O   0  0  0  0  0  0
   -8.9853    3.8309   74.4820 C   0  0  0  0  0  0
   -8.5340    5.2224   74.0406 C   0  0  0  0  0  0
  -11.0329    7.1383   69.9164 C   0  0  0  0  0  0
  -10.6350    6.9289   68.4742 C   0  0  0  0  0  0
  -10.3264    5.5546   67.9483 C   0  0  0  0  0  0
  -11.5930    6.2438   67.5319 C   0  0  0  0  0  0
  -11.0274   13.8169   67.3633 C   0  0  0  0  0  0
  -10.8200   14.6183   70.2040 C   0  0  0  0  0  0
  -11.3815   14.4706   71.4738 C   0  0  0  0  0  0
  -14.0859   16.8603   72.8111 H   0  0  0  0  0  0
  -14.5350   16.3955   74.3895 H   0  0  0  0  0  0
  -12.7081   11.3568   66.6918 H   0  0  0  0  0  0
  -11.6671    9.1197   67.6375 H   0  0  0  0  0  0
  -11.0725    8.5551   73.4796 H   0  0  0  0  0  0
   -8.0024    3.9706   77.5896 H   0  0  0  0  0  0
  1  2  1  0  0  0
  1 44  1  0  0  0
  1 45  1  0  0  0
  2  3  2  0  0  0
  2  4  2  0  0  0
  2  5  1  0  0  0
  5  6  2  0  0  0
  5 43  1  0  0  0
  6  7  1  0  0  0
  7  8  2  0  0  0
  8  9  1  0  0  0
  8 42  1  0  0  0
  9 10  1  0  0  0
 10 11  2  0  0  0
 10 41  1  0  0  0
 11 12  1  0  0  0
 12 13  2  0  0  0
 13 14  1  0  0  0
 14 15  1  0  0  0
 14 41  2  0  0  0
 15 16  1  0  0  0
 15 46  1  0  0  0
 16 17  2  0  0  0
 16 18  1  0  0  0
 18 19  1  0  0  0
 18 47  1  0  0  0
 19 20  2  0  0  0
 19 24  1  0  0  0
 20 21  1  0  0  0
 20 25  1  0  0  0
 21 22  2  0  0  0
 22 23  1  0  0  0
 23 24  2  0  0  0
 25 26  1  0  0  0
 25 37  1  0  0  0
 26 27  1  0  0  0
 27 28  1  0  0  0
 27 48  1  0  0  0
 28 29  2  0  0  0
 28 30  1  0  0  0
 30 31  1  0  0  0
 30 36  1  0  0  0
 31 32  1  0  0  0
 32 33  1  0  0  0
 33 34  1  0  0  0
 33 35  1  0  0  0
 34 49  1  0  0  0
 35 36  1  0  0  0
 37 38  1  0  0  0
 38 39  1  0  0  0
 38 40  1  0  0  0
 39 40  1  0  0  0
 42 43  2  0  0  0
M  END
>  <AUTHOR>
    GENERATED BY OPEN BABEL 2.3.2

>  <CHROM.1>
81.90572106,53.06688702,-124.66168204,134.09031988,133.75743377,-39.83210404
-69.17763908,-133.72096512,160.42830895,62.74745593,98.57351629,115.92872434
-105.87482509,115.59447579,60.58018397,140.36065161,-11.09970781,10.83160717
70.94846504,2.58880407,1.35894598,-1.46908564

>  <COMPND>
    UNNAMED

>  <MASTER>
        0    0    0    0    0    0    0    0   82    0   82    0

>  <Name>
ligands/mol6.pdb

>  <RI>
1.69321e+07

>  <Rbt.Current_Directory>
/home/rodrigo/Desktop/Rodrigo/Proyectos/test_OCONDOR/OCONDOR

>  <Rbt.Executable>
rbdock ($Id: //depot/dev/client3/rdock/2013.1/src/exe/rbdock.cxx#4 $)

>  <Rbt.Library>
libRbt.so (2013.1, Build901 2013/11/27)

>  <Rbt.Parameter_File>
dock.prm

>  <Rbt.Receptor>
rdock.prm

>  <SCORE>
-19.186

>  <SCORE.INTER>
-19.3436

>  <SCORE.INTER.CONST>
1

>  <SCORE.INTER.POLAR>
-2.01944

>  <SCORE.INTER.REPUL>
0

>  <SCORE.INTER.ROT>
15

>  <SCORE.INTER.VDW>
-32.8775

>  <SCORE.INTER.norm>
-0.449851

>  <SCORE.INTRA>
0.157542

>  <SCORE.INTRA.DIHEDRAL>
4.51878

>  <SCORE.INTRA.DIHEDRAL.0>
15.1377

>  <SCORE.INTRA.POLAR>
0

>  <SCORE.INTRA.POLAR.0>
0

>  <SCORE.INTRA.REPUL>
0

>  <SCORE.INTRA.REPUL.0>
0

>  <SCORE.INTRA.VDW>
-2.10185

>  <SCORE.INTRA.VDW.0>
-4.46419

>  <SCORE.INTRA.norm>
0.00366376

>  <SCORE.RESTR>
0

>  <SCORE.RESTR.CAVITY>
0

>  <SCORE.RESTR.norm>
0

>  <SCORE.SYSTEM>
0

>  <SCORE.SYSTEM.CONST>
0

>  <SCORE.SYSTEM.DIHEDRAL>
0

>  <SCORE.SYSTEM.norm>
0

>  <SCORE.heavy>
43

>  <SCORE.norm>
-0.446187

$$$$
ligands/mol6.pdb
  rDOCK(R)          3D
libRbt.so/2013.1/901 2013/11/27
 49 53  0  0  0  0  0  0  0  0999 V2000
   -4.8691   15.7862   67.8813 N   0  0  0  0  0  0
   -5.2702   16.1325   69.4775 S   0  0  0  0  0  0
   -4.9322   14.9250   70.2307 O   0  0  0  0  0  0
   -4.6848   17.4018   69.7578 O   0  0  0  0  0  0
   -7.0314   16.2741   69.4252 C   0  0  0  0  0  0
   -7.8270   15.2447   69.9298 C   0  0  0  0  0  0
   -9.2177   15.3345   69.8223 C   0  0  0  0  0  0
   -9.8203   16.4485   69.2177 C   0  0  0  0  0  0
  -11.3255   16.5237   69.0960 C   0  0  0  0  0  0
  -12.0738   15.4956   69.9151 C   0  0  0  0  0  0
  -12.9069   15.9113   70.9643 C   0  0  0  0  0  0
  -13.6051   14.9817   71.7365 C   0  0  0  0  0  0
  -13.5235   13.6260   71.4369 C   0  0  0  0  0  0
  -12.7301   13.2016   70.3743 C   0  0  0  0  0  0
  -12.6368   11.8410   70.0584 N   0  0  0  0  0  0
  -12.8991   10.8335   70.9646 C   0  0  0  0  0  0
  -12.8709   10.9396   72.1871 O   0  0  0  0  0  0
  -13.2844    9.6399   70.3886 N   0  0  0  0  0  0
  -13.7809    8.5251   71.0874 C   0  0  0  0  0  0
  -13.0515    7.3278   71.1866 C   0  0  0  0  0  0
  -13.6531    6.2867   71.9139 C   0  0  0  0  0  0
  -14.9127    6.4487   72.4635 C   0  0  0  0  0  0
  -15.5942    7.6039   72.4250 N   0  0  0  0  0  0
  -15.0165    8.6138   71.7426 C   0  0  0  0  0  0
  -11.6678    7.1000   70.5604 C   0  0  0  0  0  0
  -10.5712    6.6740   71.5853 C   0  0  0  0  0  0
  -10.3979    7.5811   72.7213 N   0  0  0  0  0  0
  -10.0372    7.1529   73.9915 C   0  0  0  0  0  0
  -10.8502    6.8308   74.8515 O   0  0  0  0  0  0
   -8.5117    7.0575   74.1963 C   0  0  0  0  0  0
   -7.7884    8.4182   74.1304 C   0  0  0  0  0  0
   -7.6564    9.1741   75.4578 C   0  0  0  0  0  0
   -7.2130    8.2733   76.6049 C   0  0  0  0  0  0
   -5.8745    7.8509   76.3452 O   0  0  0  0  0  0
   -8.1353    7.0643   76.7239 C   0  0  0  0  0  0
   -8.1261    6.2381   75.4386 C   0  0  0  0  0  0
  -11.7131    6.1193   69.3512 C   0  0  0  0  0  0
  -10.6083    6.4159   68.3646 C   0  0  0  0  0  0
  -10.8252    6.2480   66.8863 C   0  0  0  0  0  0
  -10.7165    7.6261   67.4709 C   0  0  0  0  0  0
  -11.9749   14.1225   69.6389 C   0  0  0  0  0  0
   -9.0027   17.4799   68.7245 C   0  0  0  0  0  0
   -7.6128   17.3951   68.8276 C   0  0  0  0  0  0
   -3.8598   15.6823   67.7969 H   0  0  0  0  0  0
   -5.2535   16.5182   67.2794 H   0  0  0  0  0  0
  -12.7565   11.5918   69.0884 H   0  0  0  0  0  0
  -13.5988    9.7633   69.4280 H   0  0  0  0  0  0
  -10.1823    8.5438   72.5039 H   0  0  0  0  0  0
   -5.2947    8.6287   76.4126 H   0  0  0  0  0  0
  1  2  1  0  0  0
  1 44  1  0  0  0
  1 45  1  0  0  0
  2  3  2  0  0  0
  2  4  2  0  0  0
  2  5  1  0  0  0
  5  6  2  0  0  0
  5 43  1  0  0  0
  6  7  1  0  0  0
  7  8  2  0  0  0
  8  9  1  0  0  0
  8 42  1  0  0  0
  9 10  1  0  0  0
 10 11  2  0  0  0
 10 41  1  0  0  0
 11 12  1  0  0  0
 12 13  2  0  0  0
 13 14  1  0  0  0
 14 15  1  0  0  0
 14 41  2  0  0  0
 15 16  1  0  0  0
 15 46  1  0  0  0
 16 17  2  0  0  0
 16 18  1  0  0  0
 18 19  1  0  0  0
 18 47  1  0  0  0
 19 20  2  0  0  0
 19 24  1  0  0  0
 20 21  1  0  0  0
 20 25  1  0  0  0
 21 22  2  0  0  0
 22 23  1  0  0  0
 23 24  2  0  0  0
 25 26  1  0  0  0
 25 37  1  0  0  0
 26 27  1  0  0  0
 27 28  1  0  0  0
 27 48  1  0  0  0
 28 29  2  0  0  0
 28 30  1  0  0  0
 30 31  1  0  0  0
 30 36  1  0  0  0
 31 32  1  0  0  0
 32 33  1  0  0  0
 33 34  1  0  0  0
 33 35  1  0  0  0
 34 49  1  0  0  0
 35 36  1  0  0  0
 37 38  1  0  0  0
 38 39  1  0  0  0
 38 40  1  0  0  0
 39 40  1  0  0  0
 42 43  2  0  0  0
M  END
>  <AUTHOR>
    GENERATED BY OPEN BABEL 2.3.2

>  <CHROM.1>
-66.71718409,104.72136213,12.42268881,115.46295427,-22.76904760,-21.75822907
-170.77831514,-111.85119938,123.33307665,-55.10679426,151.59554203,147.05848851
-90.02417684,65.36914559,67.67830654,-144.60407984,-10.13107506,11.06517026
71.26980758,-1.18214983,0.37210791,2.65231213

>  <COMPND>
    UNNAMED

>  <MASTER>
        0    0    0    0    0    0    0    0   82    0   82    0

>  <Name>
ligands/mol6.pdb

>  <RI>
1.69321e+07

>  <Rbt.Current_Directory>
/home/rodrigo/Desktop/Rodrigo/Proyectos/test_OCONDOR/OCONDOR

>  <Rbt.Executable>
rbdock ($Id: //depot/dev/client3/rdock/2013.1/src/exe/rbdock.cxx#4 $)

>  <Rbt.Library>
libRbt.so (2013.1, Build901 2013/11/27)

>  <Rbt.Parameter_File>
dock.prm

>  <Rbt.Receptor>
rdock.prm

>  <SCORE>
-14.661

>  <SCORE.INTER>
-13.7329

>  <SCORE.INTER.CONST>
1

>  <SCORE.INTER.POLAR>
-0.223424

>  <SCORE.INTER.REPUL>
0

>  <SCORE.INTER.ROT>
15

>  <SCORE.INTER.VDW>
-33.3733

>  <SCORE.INTER.norm>
-0.31937

>  <SCORE.INTRA>
-0.928123

>  <SCORE.INTRA.DIHEDRAL>
-1.8301

>  <SCORE.INTRA.DIHEDRAL.0>
15.1377

>  <SCORE.INTRA.POLAR>
0

>  <SCORE.INTRA.POLAR.0>
0

>  <SCORE.INTRA.REPUL>
0

>  <SCORE.INTRA.REPUL.0>
0

>  <SCORE.INTRA.VDW>
-0.0130719

>  <SCORE.INTRA.VDW.0>
-4.46419

>  <SCORE.INTRA.norm>
-0.0215842

>  <SCORE.RESTR>
0

>  <SCORE.RESTR.CAVITY>
0

>  <SCORE.RESTR.norm>
0

>  <SCORE.SYSTEM>
0

>  <SCORE.SYSTEM.CONST>
0

>  <SCORE.SYSTEM.DIHEDRAL>
0

>  <SCORE.SYSTEM.norm>
0

>  <SCORE.heavy>
43

>  <SCORE.norm>
-0.340954

$$$$
ligands/mol6.pdb
  rDOCK(R)          3D
libRbt.so/2013.1/901 2013/11/27
 49 53  0  0  0  0  0  0  0  0999 V2000
   -9.8216   20.4448   65.2944 N   0  0  0  0  0  0
   -8.8922   19.8243   66.5515 S   0  0  0  0  0  0
   -7.7291   19.2151   65.9067 O   0  0  0  0  0  0
   -8.7780   20.8773   67.5056 O   0  0  0  0  0  0
   -9.9066   18.5280   67.1960 C   0  0  0  0  0  0
  -10.1860   18.4779   68.5623 C   0  0  0  0  0  0
  -10.9317   17.4117   69.0731 C   0  0  0  0  0  0
  -11.4046   16.3965   68.2273 C   0  0  0  0  0  0
  -12.1974   15.2423   68.7978 C   0  0  0  0  0  0
  -12.2607   14.0224   67.9058 C   0  0  0  0  0  0
  -12.6203   14.1620   66.5572 C   0  0  0  0  0  0
  -12.6891   13.0512   65.7149 C   0  0  0  0  0  0
  -12.3468   11.7914   66.1947 C   0  0  0  0  0  0
  -11.9514   11.6432   67.5215 C   0  0  0  0  0  0
  -11.6029   10.3827   68.0208 N   0  0  0  0  0  0
  -10.4298   10.1370   68.7053 C   0  0  0  0  0  0
   -9.5301   10.9476   68.9057 O   0  0  0  0  0  0
  -10.3436    8.8696   69.2447 N   0  0  0  0  0  0
  -10.8632    8.4824   70.4928 C   0  0  0  0  0  0
  -10.6227    7.2070   71.0321 C   0  0  0  0  0  0
  -11.1938    6.9405   72.2881 C   0  0  0  0  0  0
  -11.9753    7.8907   72.9217 C   0  0  0  0  0  0
  -12.1652    9.1305   72.4450 N   0  0  0  0  0  0
  -11.6067    9.4001   71.2472 C   0  0  0  0  0  0
   -9.7907    6.1158   70.3424 C   0  0  0  0  0  0
   -8.2566    6.3999   70.3334 C   0  0  0  0  0  0
   -7.6645    6.6512   71.6486 N   0  0  0  0  0  0
   -7.2717    5.6399   72.5144 C   0  0  0  0  0  0
   -6.8854    4.5391   72.1356 O   0  0  0  0  0  0
   -7.3044    6.0563   73.9988 C   0  0  0  0  0  0
   -6.1547    7.0004   74.4061 C   0  0  0  0  0  0
   -6.4295    8.5006   74.2494 C   0  0  0  0  0  0
   -7.8012    8.9046   74.7776 C   0  0  0  0  0  0
   -7.8007    8.7278   76.1941 O   0  0  0  0  0  0
   -8.8934    8.0528   74.1389 C   0  0  0  0  0  0
   -8.6829    6.5706   74.4445 C   0  0  0  0  0  0
  -10.0918    4.6928   70.8998 C   0  0  0  0  0  0
   -9.4538    3.6239   70.0440 C   0  0  0  0  0  0
   -8.4566    2.6602   70.6250 C   0  0  0  0  0  0
   -9.8301    2.1791   70.2579 C   0  0  0  0  0  0
  -11.9453   12.7421   68.3883 C   0  0  0  0  0  0
  -11.1215   16.4696   66.8526 C   0  0  0  0  0  0
  -10.3758   17.5314   66.3367 C   0  0  0  0  0  0
   -9.3647   21.2669   64.9046 H   0  0  0  0  0  0
  -10.7644   20.6318   65.6439 H   0  0  0  0  0  0
  -12.3620    9.7498   68.2230 H   0  0  0  0  0  0
  -10.2804    8.1518   68.5253 H   0  0  0  0  0  0
   -7.2066    7.5426   71.7767 H   0  0  0  0  0  0
   -8.6845    8.9598   76.5269 H   0  0  0  0  0  0
  1  2  1  0  0  0
  1 44  1  0  0  0
  1 45  1  0  0  0
  2  3  2  0  0  0
  2  4  2  0  0  0
  2  5  1  0  0  0
  5  6  2  0  0  0
  5 43  1  0  0  0
  6  7  1  0  0  0
  7  8  2  0  0  0
  8  9  1  0  0  0
  8 42  1  0  0  0
  9 10  1  0  0  0
 10 11  2  0  0  0
 10 41  1  0  0  0
 11 12  1  0  0  0
 12 13  2  0  0  0
 13 14  1  0  0  0
 14 15  1  0  0  0
 14 41  2  0  0  0
 15 16  1  0  0  0
 15 46  1  0  0  0
 16 17  2  0  0  0
 16 18  1  0  0  0
 18 19  1  0  0  0
 18 47  1  0  0  0
 19 20  2  0  0  0
 19 24  1  0  0  0
 20 21  1  0  0  0
 20 25  1  0  0  0
 21 22  2  0  0  0
 22 23  1  0  0  0
 23 24  2  0  0  0
 25 26  1  0  0  0
 25 37  1  0  0  0
 26 27  1  0  0  0
 27 28  1  0  0  0
 27 48  1  0  0  0
 28 29  2  0  0  0
 28 30  1  0  0  0
 30 31  1  0  0  0
 30 36  1  0  0  0
 31 32  1  0  0  0
 32 33  1  0  0  0
 33 34  1  0  0  0
 33 35  1  0  0  0
 34 49  1  0  0  0
 35 36  1  0  0  0
 37 38  1  0  0  0
 38 39  1  0  0  0
 38 40  1  0  0  0
 39 40  1  0  0  0
 42 43  2  0  0  0
M  END
>  <AUTHOR>
    GENERATED BY OPEN BABEL 2.3.2

>  <CHROM.1>
-72.18831605,-128.15072713,-161.11728008,-49.66903760,129.13554654,-3.74890254
-85.26043290,-173.67333672,72.35044417,54.70564474,169.74305789,83.09930918
29.55779903,-74.03965704,-178.29635931,120.80613752,-9.81336731,11.06817583
69.89923803,-1.73721947,0.90094405,2.85388916

>  <COMPND>
    UNNAMED

>  <MASTER>
        0    0    0    0    0    0    0    0   82    0   82    0

>  <Name>
ligands/mol6.pdb

>  <RI>
1.69321e+07

>  <Rbt.Current_Directory>
/home/rodrigo/Desktop/Rodrigo/Proyectos/test_OCONDOR/OCONDOR

>  <Rbt.Executable>
rbdock ($Id: //depot/dev/client3/rdock/2013.1/src/exe/rbdock.cxx#4 $)

>  <Rbt.Library>
libRbt.so (2013.1, Build901 2013/11/27)

>  <Rbt.Parameter_File>
dock.prm

>  <Rbt.Receptor>
rdock.prm

>  <SCORE>
-14.5502

>  <SCORE.INTER>
-12.9929

>  <SCORE.INTER.CONST>
1

>  <SCORE.INTER.POLAR>
-2.67719

>  <SCORE.INTER.REPUL>
0.168586

>  <SCORE.INTER.ROT>
15

>  <SCORE.INTER.VDW>
-25.1334

>  <SCORE.INTER.norm>
-0.30216

>  <SCORE.INTRA>
-1.55735

>  <SCORE.INTRA.DIHEDRAL>
-3.38339

>  <SCORE.INTRA.DIHEDRAL.0>
15.1377

>  <SCORE.INTRA.POLAR>
0

>  <SCORE.INTRA.POLAR.0>
0

>  <SCORE.INTRA.REPUL>
0

>  <SCORE.INTRA.REPUL.0>
0

>  <SCORE.INTRA.VDW>
0.134347

>  <SCORE.INTRA.VDW.0>
-4.46419

>  <SCORE.INTRA.norm>
-0.0362174

>  <SCORE.RESTR>
0

>  <SCORE.RESTR.CAVITY>
0

>  <SCORE.RESTR.norm>
0

>  <SCORE.SYSTEM>
0

>  <SCORE.SYSTEM.CONST>
0

>  <SCORE.SYSTEM.DIHEDRAL>
0

>  <SCORE.SYSTEM.norm>
0

>  <SCORE.heavy>
43

>  <SCORE.norm>
-0.338378

$$$$
ligands/mol6.pdb
  rDOCK(R)          3D
libRbt.so/2013.1/901 2013/11/27
 49 53  0  0  0  0  0  0  0  0999 V2000
  -10.3341   19.2927   69.3991 N   0  0  0  0  0  0
  -10.5280   18.2892   68.0634 S   0  0  0  0  0  0
  -11.7132   18.7942   67.3705 O   0  0  0  0  0  0
   -9.2468   18.2185   67.4423 O   0  0  0  0  0  0
  -10.9374   16.7309   68.7906 C   0  0  0  0  0  0
   -9.9989   16.0635   69.5788 C   0  0  0  0  0  0
  -10.3064   14.8008   70.0933 C   0  0  0  0  0  0
  -11.5475   14.2012   69.8294 C   0  0  0  0  0  0
  -11.8591   12.8284   70.3812 C   0  0  0  0  0  0
  -11.6495   11.6954   69.4013 C   0  0  0  0  0  0
  -11.9569   11.8799   68.0452 C   0  0  0  0  0  0
  -11.7754   10.8488   67.1222 C   0  0  0  0  0  0
  -11.2329    9.6354   67.5317 C   0  0  0  0  0  0
  -10.8876    9.4506   68.8679 C   0  0  0  0  0  0
  -10.3399    8.2359   69.2972 N   0  0  0  0  0  0
  -11.0485    7.0517   69.3198 C   0  0  0  0  0  0
  -10.6100    5.9447   69.0215 O   0  0  0  0  0  0
  -12.3408    7.1738   69.7886 N   0  0  0  0  0  0
  -12.7222    7.8871   70.9390 C   0  0  0  0  0  0
  -12.1031    7.6733   72.1826 C   0  0  0  0  0  0
  -12.5706    8.4498   73.2564 C   0  0  0  0  0  0
  -13.6101    9.3455   73.0770 C   0  0  0  0  0  0
  -14.1704    9.6001   71.8847 N   0  0  0  0  0  0
  -13.7160    8.8706   70.8451 C   0  0  0  0  0  0
  -10.9717    6.6637   72.4267 C   0  0  0  0  0  0
   -9.5418    7.2534   72.2222 C   0  0  0  0  0  0
   -9.0256    8.0336   73.3484 N   0  0  0  0  0  0
   -7.7432    8.5636   73.3854 C   0  0  0  0  0  0
   -7.2653    9.2385   72.4796 O   0  0  0  0  0  0
   -6.9994    8.2775   74.7056 C   0  0  0  0  0  0
   -5.5154    8.6976   74.6877 C   0  0  0  0  0  0
   -5.2180   10.1336   75.1351 C   0  0  0  0  0  0
   -5.9736   10.5228   76.4005 C   0  0  0  0  0  0
   -5.4628    9.7413   77.4802 O   0  0  0  0  0  0
   -7.4689   10.2746   76.2294 C   0  0  0  0  0  0
   -7.7512    8.8011   75.9401 C   0  0  0  0  0  0
  -11.0912    5.9550   73.8086 C   0  0  0  0  0  0
  -10.0547    4.8660   73.9561 C   0  0  0  0  0  0
   -8.8186    5.0812   74.7845 C   0  0  0  0  0  0
   -9.8981    4.1650   75.2824 C   0  0  0  0  0  0
  -11.1297   10.4569   69.8102 C   0  0  0  0  0  0
  -12.4835   14.8932   69.0418 C   0  0  0  0  0  0
  -12.1815   16.1543   68.5239 C   0  0  0  0  0  0
   -9.4131   19.1450   69.8073 H   0  0  0  0  0  0
  -11.1006   19.1204   70.0539 H   0  0  0  0  0  0
   -9.3386    8.1392   69.2233 H   0  0  0  0  0  0
  -13.0273    7.0984   69.0403 H   0  0  0  0  0  0
   -9.7095    8.4956   73.9310 H   0  0  0  0  0  0
   -5.5625    8.8027   77.2463 H   0  0  0  0  0  0
  1  2  1  0  0  0
  1 44  1  0  0  0
  1 45  1  0  0  0
  2  3  2  0  0  0
  2  4  2  0  0  0
  2  5  1  0  0  0
  5  6  2  0  0  0
  5 43  1  0  0  0
  6  7  1  0  0  0
  7  8  2  0  0  0
  8  9  1  0  0  0
  8 42  1  0  0  0
  9 10  1  0  0  0
 10 11  2  0  0  0
 10 41  1  0  0  0
 11 12  1  0  0  0
 12 13  2  0  0  0
 13 14  1  0  0  0
 14 15  1  0  0  0
 14 41  2  0  0  0
 15 16  1  0  0  0
 15 46  1  0  0  0
 16 17  2  0  0  0
 16 18  1  0  0  0
 18 19  1  0  0  0
 18 47  1  0  0  0
 19 20  2  0  0  0
 19 24  1  0  0  0
 20 21  1  0  0  0
 20 25  1  0  0  0
 21 22  2  0  0  0
 22 23  1  0  0  0
 23 24  2  0  0  0
 25 26  1  0  0  0
 25 37  1  0  0  0
 26 27  1  0  0  0
 27 28  1  0  0  0
 27 48  1  0  0  0
 28 29  2  0  0  0
 28 30  1  0  0  0
 30 31  1  0  0  0
 30 36  1  0  0  0
 31 32  1  0  0  0
 32 33  1  0  0  0
 33 34  1  0  0  0
 33 35  1  0  0  0
 34 49  1  0  0  0
 35 36  1  0  0  0
 37 38  1  0  0  0
 38 39  1  0  0  0
 38 40  1  0  0  0
 39 40  1  0  0  0
 42 43  2  0  0  0
M  END
>  <AUTHOR>
    GENERATED BY OPEN BABEL 2.3.2

>  <CHROM.1>
-166.73571985,-65.26818188,-98.11389989,-36.59836689,-67.51995890,140.96734226
-45.82015019,-51.79210865,90.06704520,80.23820561,173.88122452,175.77393117
50.89618044,172.37268992,-57.05004269,102.59787057,-10.21344451,10.75333835
71.35365975,-1.82437008,0.78417133,2.79327843

>  <COMPND>
    UNNAMED

>  <MASTER>
        0    0    0    0    0    0    0    0   82    0   82    0

>  <Name>
ligands/mol6.pdb

>  <RI>
1.69321e+07

>  <Rbt.Current_Directory>
/home/rodrigo/Desktop/Rodrigo/Proyectos/test_OCONDOR/OCONDOR

>  <Rbt.Executable>
rbdock ($Id: //depot/dev/client3/rdock/2013.1/src/exe/rbdock.cxx#4 $)

>  <Rbt.Library>
libRbt.so (2013.1, Build901 2013/11/27)

>  <Rbt.Parameter_File>
dock.prm

>  <Rbt.Receptor>
rdock.prm

>  <SCORE>
-14.4927

>  <SCORE.INTER>
-10.8808

>  <SCORE.INTER.CONST>
1

>  <SCORE.INTER.POLAR>
-1.32026

>  <SCORE.INTER.REPUL>
0

>  <SCORE.INTER.ROT>
15

>  <SCORE.INTER.VDW>
-26.7919

>  <SCORE.INTER.norm>
-0.253041

>  <SCORE.INTRA>
-3.61193

>  <SCORE.INTRA.DIHEDRAL>
-2.97924

>  <SCORE.INTRA.DIHEDRAL.0>
15.1377

>  <SCORE.INTRA.POLAR>
0

>  <SCORE.INTRA.POLAR.0>
0

>  <SCORE.INTRA.REPUL>
0

>  <SCORE.INTRA.REPUL.0>
0

>  <SCORE.INTRA.VDW>
-2.12232

>  <SCORE.INTRA.VDW.0>
-4.46419

>  <SCORE.INTRA.norm>
-0.0839985

>  <SCORE.RESTR>
0

>  <SCORE.RESTR.CAVITY>
0

>  <SCORE.RESTR.norm>
0

>  <SCORE.SYSTEM>
0

>  <SCORE.SYSTEM.CONST>
0

>  <SCORE.SYSTEM.DIHEDRAL>
0

>  <SCORE.SYSTEM.norm>
0

>  <SCORE.heavy>
43

>  <SCORE.norm>
-0.33704

$$$$
ligands/mol6.pdb
  rDOCK(R)          3D
libRbt.so/2013.1/901 2013/11/27
 49 53  0  0  0  0  0  0  0  0999 V2000
   -4.3970   21.2679   67.4327 N   0  0  0  0  0  0
   -5.0413   20.6977   68.8779 S   0  0  0  0  0  0
   -4.3741   19.4185   69.1193 O   0  0  0  0  0  0
   -4.9661   21.7881   69.7930 O   0  0  0  0  0  0
   -6.7276   20.3693   68.4615 C   0  0  0  0  0  0
   -7.4098   19.3288   69.0932 C   0  0  0  0  0  0
   -8.7206   19.0326   68.7090 C   0  0  0  0  0  0
   -9.3572   19.7721   67.7003 C   0  0  0  0  0  0
  -10.7704   19.4297   67.2860 C   0  0  0  0  0  0
  -10.9583   18.0056   66.8122 C   0  0  0  0  0  0
  -10.5764   17.6471   65.5110 C   0  0  0  0  0  0
  -10.7428   16.3404   65.0494 C   0  0  0  0  0  0
  -11.2431   15.3601   65.8997 C   0  0  0  0  0  0
  -11.5911   15.6930   67.2062 C   0  0  0  0  0  0
  -12.0957   14.7187   68.0756 N   0  0  0  0  0  0
  -11.3114   14.0309   68.9794 C   0  0  0  0  0  0
  -10.4216   14.5134   69.6737 O   0  0  0  0  0  0
  -11.6448   12.6990   69.1199 N   0  0  0  0  0  0
  -12.2764   12.1352   70.2427 C   0  0  0  0  0  0
  -11.9746   10.8369   70.6886 C   0  0  0  0  0  0
  -12.6707   10.3871   71.8234 C   0  0  0  0  0  0
  -13.6222   11.1889   72.4290 C   0  0  0  0  0  0
  -13.8784   12.4498   72.0484 N   0  0  0  0  0  0
  -13.2025   12.8954   70.9696 C   0  0  0  0  0  0
  -10.9513    9.9061   70.0214 C   0  0  0  0  0  0
  -11.2331    9.6338   68.5112 C   0  0  0  0  0  0
  -10.4241    8.5715   67.9109 N   0  0  0  0  0  0
  -10.7206    7.9852   66.6881 C   0  0  0  0  0  0
  -11.5393    7.0820   66.5534 O   0  0  0  0  0  0
   -9.9690    8.6248   65.5031 C   0  0  0  0  0  0
  -10.3017   10.1152   65.2863 C   0  0  0  0  0  0
   -9.4238   11.1171   66.0454 C   0  0  0  0  0  0
   -7.9398   10.7783   65.9621 C   0  0  0  0  0  0
   -7.5208   10.9503   64.6085 O   0  0  0  0  0  0
   -7.6918    9.3427   66.4140 C   0  0  0  0  0  0
   -8.4566    8.3516   65.5379 C   0  0  0  0  0  0
   -9.4830   10.3782   70.2393 C   0  0  0  0  0  0
   -8.5504    9.2024   70.4125 C   0  0  0  0  0  0
   -7.4207    9.2502   71.4033 C   0  0  0  0  0  0
   -8.6152    8.3838   71.6776 C   0  0  0  0  0  0
  -11.4897   17.0153   67.6537 C   0  0  0  0  0  0
   -8.6573   20.8229   67.0827 C   0  0  0  0  0  0
   -7.3471   21.1224   67.4612 C   0  0  0  0  0  0
   -4.5476   20.5811   66.6963 H   0  0  0  0  0  0
   -3.4109   21.4959   67.5796 H   0  0  0  0  0  0
  -13.0726   14.7889   68.3166 H   0  0  0  0  0  0
  -11.8075   12.2491   68.2210 H   0  0  0  0  0  0
   -9.4581    8.5181   68.2017 H   0  0  0  0  0  0
   -6.5684   10.7597   64.5615 H   0  0  0  0  0  0
  1  2  1  0  0  0
  1 44  1  0  0  0
  1 45  1  0  0  0
  2  3  2  0  0  0
  2  4  2  0  0  0
  2  5  1  0  0  0
  5  6  2  0  0  0
  5 43  1  0  0  0
  6  7  1  0  0  0
  7  8  2  0  0  0
  8  9  1  0  0  0
  8 42  1  0  0  0
  9 10  1  0  0  0
 10 11  2  0  0  0
 10 41  1  0  0  0
 11 12  1  0  0  0
 12 13  2  0  0  0
 13 14  1  0  0  0
 14 15  1  0  0  0
 14 41  2  0  0  0
 15 16  1  0  0  0
 15 46  1  0  0  0
 16 17  2  0  0  0
 16 18  1  0  0  0
 18 19  1  0  0  0
 18 47  1  0  0  0
 19 20  2  0  0  0
 19 24  1  0  0  0
 20 21  1  0  0  0
 20 25  1  0  0  0
 21 22  2  0  0  0
 22 23  1  0  0  0
 23 24  2  0  0  0
 25 26  1  0  0  0
 25 37  1  0  0  0
 26 27  1  0  0  0
 27 28  1  0  0  0
 27 48  1  0  0  0
 28 29  2  0  0  0
 28 30  1  0  0  0
 30 31  1  0  0  0
 30 36  1  0  0  0
 31 32  1  0  0  0
 32 33  1  0  0  0
 33 34  1  0  0  0
 33 35  1  0  0  0
 34 49  1  0  0  0
 35 36  1  0  0  0
 37 38  1  0  0  0
 38 39  1  0  0  0
 38 40  1  0  0  0
 39 40  1  0  0  0
 42 43  2  0  0  0
M  END
>  <AUTHOR>
    GENERATED BY OPEN BABEL 2.3.2

>  <CHROM.1>
57.23710771,148.02893887,-57.50283223,-79.12414609,96.00307932,41.73509233
-108.04352128,-144.87655729,-56.68945775,-169.55360546,143.76564152,165.33592869
-82.42402543,-61.64135875,178.34002131,-141.30541959,-9.49124398,14.10233053
68.27987030,-1.16198190,-0.65942204,-2.92076527

>  <COMPND>
    UNNAMED

>  <MASTER>
        0    0    0    0    0    0    0    0   82    0   82    0

>  <Name>
ligands/mol6.pdb

>  <RI>
1.69321e+07

>  <Rbt.Current_Directory>
/home/rodrigo/Desktop/Rodrigo/Proyectos/test_OCONDOR/OCONDOR

>  <Rbt.Executable>
rbdock ($Id: //depot/dev/client3/rdock/2013.1/src/exe/rbdock.cxx#4 $)

>  <Rbt.Library>
libRbt.so (2013.1, Build901 2013/11/27)

>  <Rbt.Parameter_File>
dock.prm

>  <Rbt.Receptor>
rdock.prm

>  <SCORE>
-13.9696

>  <SCORE.INTER>
-10.3983

>  <SCORE.INTER.CONST>
1

>  <SCORE.INTER.POLAR>
-0.84318

>  <SCORE.INTER.REPUL>
0

>  <SCORE.INTER.ROT>
15

>  <SCORE.INTER.VDW>
-27.9315

>  <SCORE.INTER.norm>
-0.241821

>  <SCORE.INTRA>
-3.57126

>  <SCORE.INTRA.DIHEDRAL>
-0.936282

>  <SCORE.INTRA.DIHEDRAL.0>
15.1377

>  <SCORE.INTRA.POLAR>
0

>  <SCORE.INTRA.POLAR.0>
0

>  <SCORE.INTRA.REPUL>
0

>  <SCORE.INTRA.REPUL.0>
0

>  <SCORE.INTRA.VDW>
-3.10312

>  <SCORE.INTRA.VDW.0>
-4.46419

>  <SCORE.INTRA.norm>
-0.0830526

>  <SCORE.RESTR>
0

>  <SCORE.RESTR.CAVITY>
0

>  <SCORE.RESTR.norm>
0

>  <SCORE.SYSTEM>
0

>  <SCORE.SYSTEM.CONST>
0

>  <SCORE.SYSTEM.DIHEDRAL>
0

>  <SCORE.SYSTEM.norm>
0

>  <SCORE.heavy>
43

>  <SCORE.norm>
-0.324873

$$$$
ligands/mol6.pdb
  rDOCK(R)          3D
libRbt.so/2013.1/901 2013/11/27
 49 53  0  0  0  0  0  0  0  0999 V2000
   -9.9401   13.0280   63.6881 N   0  0  0  0  0  0
  -10.3818   11.4157   63.8730 S   0  0  0  0  0  0
  -11.8274   11.3841   63.6518 O   0  0  0  0  0  0
   -9.4661   10.6689   63.0755 O   0  0  0  0  0  0
  -10.0803   11.1131   65.5883 C   0  0  0  0  0  0
  -10.6673   10.0123   66.2137 C   0  0  0  0  0  0
  -10.4789    9.8193   67.5852 C   0  0  0  0  0  0
   -9.7038   10.7164   68.3364 C   0  0  0  0  0  0
   -9.5217   10.5015   69.8219 C   0  0  0  0  0  0
  -10.8120   10.4081   70.6057 C   0  0  0  0  0  0
  -11.7651   11.4324   70.5051 C   0  0  0  0  0  0
  -12.9618   11.3708   71.2209 C   0  0  0  0  0  0
  -13.2472   10.2586   72.0056 C   0  0  0  0  0  0
  -12.3270    9.2166   72.0852 C   0  0  0  0  0  0
  -12.5983    8.0895   72.8699 N   0  0  0  0  0  0
  -11.6631    7.1105   73.1380 C   0  0  0  0  0  0
  -11.6340    5.9878   72.6426 O   0  0  0  0  0  0
  -10.6588    7.5069   73.9977 N   0  0  0  0  0  0
   -9.7369    6.6461   74.6196 C   0  0  0  0  0  0
   -8.6696    6.0672   73.9115 C   0  0  0  0  0  0
   -7.8146    5.2268   74.6447 C   0  0  0  0  0  0
   -8.0549    4.9739   75.9838 C   0  0  0  0  0  0
   -9.0352    5.5644   76.6844 N   0  0  0  0  0  0
   -9.8509    6.3855   75.9918 C   0  0  0  0  0  0
   -8.3926    6.2967   72.4185 C   0  0  0  0  0  0
   -7.5563    7.5795   72.1195 C   0  0  0  0  0  0
   -6.3365    7.7244   72.9161 N   0  0  0  0  0  0
   -5.9217    8.9305   73.4639 C   0  0  0  0  0  0
   -5.8758    9.9795   72.8301 O   0  0  0  0  0  0
   -5.5867    8.8385   74.9664 C   0  0  0  0  0  0
   -4.9568   10.1228   75.5435 C   0  0  0  0  0  0
   -5.9385   11.1644   76.0931 C   0  0  0  0  0  0
   -7.0271   10.5444   76.9617 C   0  0  0  0  0  0
   -6.4130   10.0316   78.1438 O   0  0  0  0  0  0
   -7.7410    9.4262   76.2090 C   0  0  0  0  0  0
   -6.7633    8.3218   75.8100 C   0  0  0  0  0  0
   -7.7668    5.0486   71.7280 C   0  0  0  0  0  0
   -8.7950    3.9595   71.5311 C   0  0  0  0  0  0
   -8.4192    2.5090   71.6554 C   0  0  0  0  0  0
   -9.2596    3.1540   72.7186 C   0  0  0  0  0  0
  -11.0967    9.3030   71.4235 C   0  0  0  0  0  0
   -9.1125   11.8135   67.6867 C   0  0  0  0  0  0
   -9.2984   12.0124   66.3172 C   0  0  0  0  0  0
   -8.9306   13.1193   63.7835 H   0  0  0  0  0  0
  -10.4641   13.5917   64.3616 H   0  0  0  0  0  0
  -13.3383    8.1782   73.5496 H   0  0  0  0  0  0
  -10.3524    8.4603   73.8134 H   0  0  0  0  0  0
   -5.9921    6.8920   73.3734 H   0  0  0  0  0  0
   -5.7667    9.3552   77.8783 H   0  0  0  0  0  0
  1  2  1  0  0  0
  1 44  1  0  0  0
  1 45  1  0  0  0
  2  3  2  0  0  0
  2  4  2  0  0  0
  2  5  1  0  0  0
  5  6  2  0  0  0
  5 43  1  0  0  0
  6  7  1  0  0  0
  7  8  2  0  0  0
  8  9  1  0  0  0
  8 42  1  0  0  0
  9 10  1  0  0  0
 10 11  2  0  0  0
 10 41  1  0  0  0
 11 12  1  0  0  0
 12 13  2  0  0  0
 13 14  1  0  0  0
 14 15  1  0  0  0
 14 41  2  0  0  0
 15 16  1  0  0  0
 15 46  1  0  0  0
 16 17  2  0  0  0
 16 18  1  0  0  0
 18 19  1  0  0  0
 18 47  1  0  0  0
 19 20  2  0  0  0
 19 24  1  0  0  0
 20 21  1  0  0  0
 20 25  1  0  0  0
 21 22  2  0  0  0
 22 23  1  0  0  0
 23 24  2  0  0  0
 25 26  1  0  0  0
 25 37  1  0  0  0
 26 27  1  0  0  0
 27 28  1  0  0  0
 27 48  1  0  0  0
 28 29  2  0  0  0
 28 30  1  0  0  0
 30 31  1  0  0  0
 30 36  1  0  0  0
 31 32  1  0  0  0
 32 33  1  0  0  0
 33 34  1  0  0  0
 33 35  1  0  0  0
 34 49  1  0  0  0
 35 36  1  0  0  0
 37 38  1  0  0  0
 38 39  1  0  0  0
 38 40  1  0  0  0
 39 40  1  0  0  0
 42 43  2  0  0  0
M  END
>  <AUTHOR>
    GENERATED BY OPEN BABEL 2.3.2

>  <CHROM.1>
-177.19048378,162.00103482,-55.88323105,-54.12809290,-170.90314263,-105.75387932
167.60968915,74.66336148,85.09433141,49.66302657,73.62035740,-138.41697752
-47.86769560,172.67777710,-60.60813855,-144.47758388,-9.19371381,8.74669719
71.44497000,-2.04982987,1.01469213,2.36944949

>  <COMPND>
    UNNAMED

>  <MASTER>
        0    0    0    0    0    0    0    0   82    0   82    0

>  <Name>
ligands/mol6.pdb

>  <RI>
1.69321e+07

>  <Rbt.Current_Directory>
/home/rodrigo/Desktop/Rodrigo/Proyectos/test_OCONDOR/OCONDOR

>  <Rbt.Executable>
rbdock ($Id: //depot/dev/client3/rdock/2013.1/src/exe/rbdock.cxx#4 $)

>  <Rbt.Library>
libRbt.so (2013.1, Build901 2013/11/27)

>  <Rbt.Parameter_File>
dock.prm

>  <Rbt.Receptor>
rdock.prm

>  <SCORE>
-10.505

>  <SCORE.INTER>
-6.95474

>  <SCORE.INTER.CONST>
1

>  <SCORE.INTER.POLAR>
-1.05266

>  <SCORE.INTER.REPUL>
0.00409878

>  <SCORE.INTER.ROT>
15

>  <SCORE.INTER.VDW>
-23.7962

>  <SCORE.INTER.norm>
-0.161738

>  <SCORE.INTRA>
-3.55021

>  <SCORE.INTRA.DIHEDRAL>
-2.29911

>  <SCORE.INTRA.DIHEDRAL.0>
15.1377

>  <SCORE.INTRA.POLAR>
0

>  <SCORE.INTRA.POLAR.0>
0

>  <SCORE.INTRA.REPUL>
0

>  <SCORE.INTRA.REPUL.0>
0

>  <SCORE.INTRA.VDW>
-2.40066

>  <SCORE.INTRA.VDW.0>
-4.46419

>  <SCORE.INTRA.norm>
-0.0825631

>  <SCORE.RESTR>
0

>  <SCORE.RESTR.CAVITY>
0

>  <SCORE.RESTR.norm>
0

>  <SCORE.SYSTEM>
0

>  <SCORE.SYSTEM.CONST>
0

>  <SCORE.SYSTEM.DIHEDRAL>
0

>  <SCORE.SYSTEM.norm>
0

>  <SCORE.heavy>
43

>  <SCORE.norm>
-0.244301

$$$$
ligands/mol6.pdb
  rDOCK(R)          3D
libRbt.so/2013.1/901 2013/11/27
 49 53  0  0  0  0  0  0  0  0999 V2000
  -10.3121   14.5406   64.3304 N   0  0  0  0  0  0
  -11.6175   13.4984   64.5267 S   0  0  0  0  0  0
  -12.7641   14.3641   64.8018 O   0  0  0  0  0  0
  -11.5755   12.6100   63.4127 O   0  0  0  0  0  0
  -11.2148   12.6292   66.0124 C   0  0  0  0  0  0
  -12.2318   12.0780   66.7928 C   0  0  0  0  0  0
  -11.9096   11.4522   68.0004 C   0  0  0  0  0  0
  -10.5768   11.3689   68.4322 C   0  0  0  0  0  0
  -10.2463   10.7016   69.7481 C   0  0  0  0  0  0
  -10.0700    9.2017   69.6646 C   0  0  0  0  0  0
   -9.0201    8.6637   68.9056 C   0  0  0  0  0  0
   -8.8386    7.2831   68.8103 C   0  0  0  0  0  0
   -9.6709    6.4211   69.5163 C   0  0  0  0  0  0
  -10.6940    6.9421   70.3042 C   0  0  0  0  0  0
  -11.5407    6.0890   71.0218 N   0  0  0  0  0  0
  -11.6304    6.0938   72.3991 C   0  0  0  0  0  0
  -11.7230    7.0896   73.1109 O   0  0  0  0  0  0
  -11.6802    4.8373   72.9677 N   0  0  0  0  0  0
  -10.6281    3.9042   72.9663 C   0  0  0  0  0  0
   -9.4443    4.1212   73.6923 C   0  0  0  0  0  0
   -8.4680    3.1136   73.6133 C   0  0  0  0  0  0
   -8.6745    1.9935   72.8273 C   0  0  0  0  0  0
   -9.8215    1.7476   72.1759 N   0  0  0  0  0  0
  -10.7706    2.7024   72.2598 C   0  0  0  0  0  0
   -9.1658    5.3669   74.5462 C   0  0  0  0  0  0
   -8.9062    6.6605   73.7134 C   0  0  0  0  0  0
   -8.5602    7.8457   74.5000 N   0  0  0  0  0  0
   -7.4916    8.6779   74.1963 C   0  0  0  0  0  0
   -7.2937    9.1417   73.0783 O   0  0  0  0  0  0
   -6.6126    9.0175   75.4170 C   0  0  0  0  0  0
   -5.3776    9.8761   75.0754 C   0  0  0  0  0  0
   -5.5800   11.3950   75.1271 C   0  0  0  0  0  0
   -6.3426   11.8439   76.3683 C   0  0  0  0  0  0
   -5.5210   11.5937   77.5084 O   0  0  0  0  0  0
   -7.6609   11.0863   76.4902 C   0  0  0  0  0  0
   -7.4212    9.5810   76.5968 C   0  0  0  0  0  0
  -10.2622    5.6086   75.6258 C   0  0  0  0  0  0
  -10.1200    4.6398   76.7762 C   0  0  0  0  0  0
   -9.1630    4.9121   77.9034 C   0  0  0  0  0  0
  -10.6412    5.0236   78.1385 C   0  0  0  0  0  0
  -10.9230    8.3222   70.3502 C   0  0  0  0  0  0
   -9.5654   11.9212   67.6276 C   0  0  0  0  0  0
   -9.8813   12.5489   66.4210 C   0  0  0  0  0  0
  -10.5345   15.2381   63.6227 H   0  0  0  0  0  0
   -9.4807   13.9880   64.1083 H   0  0  0  0  0  0
  -12.3564    5.7472   70.5367 H   0  0  0  0  0  0
  -12.3367    4.7956   73.7450 H   0  0  0  0  0  0
   -9.3044    8.2647   75.0397 H   0  0  0  0  0  0
   -6.0061   11.8853   78.2991 H   0  0  0  0  0  0
  1  2  1  0  0  0
  1 44  1  0  0  0
  1 45  1  0  0  0
  2  3  2  0  0  0
  2  4  2  0  0  0
  2  5  1  0  0  0
  5  6  2  0  0  0
  5 43  1  0  0  0
  6  7  1  0  0  0
  7  8  2  0  0  0
  8  9  1  0  0  0
  8 42  1  0  0  0
  9 10  1  0  0  0
 10 11  2  0  0  0
 10 41  1  0  0  0
 11 12  1  0  0  0
 12 13  2  0  0  0
 13 14  1  0  0  0
 14 15  1  0  0  0
 14 41  2  0  0  0
 15 16  1  0  0  0
 15 46  1  0  0  0
 16 17  2  0  0  0
 16 18  1  0  0  0
 18 19  1  0  0  0
 18 47  1  0  0  0
 19 20  2  0  0  0
 19 24  1  0  0  0
 20 21  1  0  0  0
 20 25  1  0  0  0
 21 22  2  0  0  0
 22 23  1  0  0  0
 23 24  2  0  0  0
 25 26  1  0  0  0
 25 37  1  0  0  0
 26 27  1  0  0  0
 27 28  1  0  0  0
 27 48  1  0  0  0
 28 29  2  0  0  0
 28 30  1  0  0  0
 30 31  1  0  0  0
 30 36  1  0  0  0
 31 32  1  0  0  0
 32 33  1  0  0  0
 33 34  1  0  0  0
 33 35  1  0  0  0
 34 49  1  0  0  0
 35 36  1  0  0  0
 37 38  1  0  0  0
 38 39  1  0  0  0
 38 40  1  0  0  0
 39 40  1  0  0  0
 42 43  2  0  0  0
M  END
>  <AUTHOR>
    GENERATED BY OPEN BABEL 2.3.2

>  <CHROM.1>
-53.95937375,154.62645051,85.94409654,64.11407427,117.76274632,45.67406185
67.21459918,67.81014590,-71.68692183,-176.55631001,75.28818409,132.27995789
50.02581287,176.72240867,179.66711181,83.77946867,-9.62585715,8.57577904
71.55031531,-1.96486944,1.03370376,2.52036255

>  <COMPND>
    UNNAMED

>  <MASTER>
        0    0    0    0    0    0    0    0   82    0   82    0

>  <Name>
ligands/mol6.pdb

>  <RI>
1.69321e+07

>  <Rbt.Current_Directory>
/home/rodrigo/Desktop/Rodrigo/Proyectos/test_OCONDOR/OCONDOR

>  <Rbt.Executable>
rbdock ($Id: //depot/dev/client3/rdock/2013.1/src/exe/rbdock.cxx#4 $)

>  <Rbt.Library>
libRbt.so (2013.1, Build901 2013/11/27)

>  <Rbt.Parameter_File>
dock.prm

>  <Rbt.Receptor>
rdock.prm

>  <SCORE>
-9.359

>  <SCORE.INTER>
-5.09982

>  <SCORE.INTER.CONST>
1

>  <SCORE.INTER.POLAR>
-0.375083

>  <SCORE.INTER.REPUL>
0.0403379

>  <SCORE.INTER.ROT>
15

>  <SCORE.INTER.VDW>
-24.4262

>  <SCORE.INTER.norm>
-0.118601

>  <SCORE.INTRA>
-4.25918

>  <SCORE.INTRA.DIHEDRAL>
-2.61698

>  <SCORE.INTRA.DIHEDRAL.0>
15.1377

>  <SCORE.INTRA.POLAR>
0

>  <SCORE.INTRA.POLAR.0>
0

>  <SCORE.INTRA.REPUL>
0

>  <SCORE.INTRA.REPUL.0>
0

>  <SCORE.INTRA.VDW>
-2.95069

>  <SCORE.INTRA.VDW.0>
-4.46419

>  <SCORE.INTRA.norm>
-0.0990506

>  <SCORE.RESTR>
0

>  <SCORE.RESTR.CAVITY>
0

>  <SCORE.RESTR.norm>
0

>  <SCORE.SYSTEM>
0

>  <SCORE.SYSTEM.CONST>
0

>  <SCORE.SYSTEM.DIHEDRAL>
0

>  <SCORE.SYSTEM.norm>
0

>  <SCORE.heavy>
43

>  <SCORE.norm>
-0.217651

$$$$
ligands/mol6.pdb
  rDOCK(R)          3D
libRbt.so/2013.1/901 2013/11/27
 49 53  0  0  0  0  0  0  0  0999 V2000
  -12.5925   15.1741   73.6071 N   0  0  0  0  0  0
  -13.8221   14.5753   72.6282 S   0  0  0  0  0  0
  -14.0154   13.1899   73.0560 O   0  0  0  0  0  0
  -14.8642   15.5468   72.6766 O   0  0  0  0  0  0
  -13.0820   14.5579   71.0230 C   0  0  0  0  0  0
  -12.5130   13.3819   70.5325 C   0  0  0  0  0  0
  -11.8698   13.3946   69.2916 C   0  0  0  0  0  0
  -11.7947   14.5738   68.5343 C   0  0  0  0  0  0
  -11.0826   14.5743   67.2004 C   0  0  0  0  0  0
   -9.6472   14.1006   67.2547 C   0  0  0  0  0  0
   -8.6016   15.0332   67.1857 C   0  0  0  0  0  0
   -7.2690   14.6207   67.2303 C   0  0  0  0  0  0
   -6.9621   13.2748   67.3994 C   0  0  0  0  0  0
   -7.9900   12.3417   67.5075 C   0  0  0  0  0  0
   -7.6992   10.9831   67.6785 N   0  0  0  0  0  0
   -8.3455   10.1799   68.5963 C   0  0  0  0  0  0
   -9.5543    9.9731   68.6464 O   0  0  0  0  0  0
   -7.5011    9.5266   69.4708 N   0  0  0  0  0  0
   -7.0638    8.1969   69.3350 C   0  0  0  0  0  0
   -7.5530    7.1682   70.1584 C   0  0  0  0  0  0
   -7.0410    5.8809   69.9230 C   0  0  0  0  0  0
   -6.0814    5.6727   68.9479 C   0  0  0  0  0  0
   -5.6487    6.6341   68.1179 N   0  0  0  0  0  0
   -6.1474    7.8699   68.3264 C   0  0  0  0  0  0
   -8.5906    7.3679   71.2729 C   0  0  0  0  0  0
  -10.0027    6.7981   70.9329 C   0  0  0  0  0  0
  -10.5947    7.3057   69.6939 N   0  0  0  0  0  0
  -11.7007    6.7293   69.0846 C   0  0  0  0  0  0
  -12.7604    6.5221   69.6663 O   0  0  0  0  0  0
  -11.4908    6.4345   67.5855 C   0  0  0  0  0  0
  -11.0370    7.6608   66.7675 C   0  0  0  0  0  0
   -9.5228    7.8799   66.6688 C   0  0  0  0  0  0
   -8.7623    6.5947   66.3627 C   0  0  0  0  0  0
   -9.1097    6.1774   65.0426 O   0  0  0  0  0  0
   -9.1188    5.5079   67.3718 C   0  0  0  0  0  0
  -10.6143    5.1962   67.3375 C   0  0  0  0  0  0
   -8.0940    6.8431   72.6527 C   0  0  0  0  0  0
   -9.0278    7.2599   73.7647 C   0  0  0  0  0  0
   -9.3648    6.3171   74.8864 C   0  0  0  0  0  0
   -8.4754    7.4975   75.1479 C   0  0  0  0  0  0
   -9.3269   12.7410   67.3959 C   0  0  0  0  0  0
  -12.3825   15.7458   69.0404 C   0  0  0  0  0  0
  -13.0250   15.7396   70.2801 C   0  0  0  0  0  0
  -11.7763   14.5692   73.5400 H   0  0  0  0  0  0
  -12.9490   15.2704   74.5609 H   0  0  0  0  0  0
   -7.3031   10.5013   66.8858 H   0  0  0  0  0  0
   -6.8813   10.1717   69.9571 H   0  0  0  0  0  0
  -10.4320    8.2795   69.4795 H   0  0  0  0  0  0
  -10.0798    6.1643   64.9764 H   0  0  0  0  0  0
  1  2  1  0  0  0
  1 44  1  0  0  0
  1 45  1  0  0  0
  2  3  2  0  0  0
  2  4  2  0  0  0
  2  5  1  0  0  0
  5  6  2  0  0  0
  5 43  1  0  0  0
  6  7  1  0  0  0
  7  8  2  0  0  0
  8  9  1  0  0  0
  8 42  1  0  0  0
  9 10  1  0  0  0
 10 11  2  0  0  0
 10 41  1  0  0  0
 11 12  1  0  0  0
 12 13  2  0  0  0
 13 14  1  0  0  0
 14 15  1  0  0  0
 14 41  2  0  0  0
 15 16  1  0  0  0
 15 46  1  0  0  0
 16 17  2  0  0  0
 16 18  1  0  0  0
 18 19  1  0  0  0
 18 47  1  0  0  0
 19 20  2  0  0  0
 19 24  1  0  0  0
 20 21  1  0  0  0
 20 25  1  0  0  0
 21 22  2  0  0  0
 22 23  1  0  0  0
 23 24  2  0  0  0
 25 26  1  0  0  0
 25 37  1  0  0  0
 26 27  1  0  0  0
 27 28  1  0  0  0
 27 48  1  0  0  0
 28 29  2  0  0  0
 28 30  1  0  0  0
 30 31  1  0  0  0
 30 36  1  0  0  0
 31 32  1  0  0  0
 32 33  1  0  0  0
 33 34  1  0  0  0
 33 35  1  0  0  0
 34 49  1  0  0  0
 35 36  1  0  0  0
 37 38  1  0  0  0
 38 39  1  0  0  0
 38 40  1  0  0  0
 39 40  1  0  0  0
 42 43  2  0  0  0
M  END
>  <AUTHOR>
    GENERATED BY OPEN BABEL 2.3.2

>  <CHROM.1>
54.61566025,96.38894268,-56.01693503,-103.79859959,134.95654688,58.10479213
-98.00458179,-106.80715999,107.38640823,-55.58786066,170.39186272,166.42501828
53.67847437,-54.09348762,-50.98538639,140.24692538,-9.98292514,10.16814209
69.55600722,2.48577764,0.98871958,-0.59743163

>  <COMPND>
    UNNAMED

>  <MASTER>
        0    0    0    0    0    0    0    0   82    0   82    0

>  <Name>
ligands/mol6.pdb

>  <RI>
1.69321e+07

>  <Rbt.Current_Directory>
/home/rodrigo/Desktop/Rodrigo/Proyectos/test_OCONDOR/OCONDOR

>  <Rbt.Executable>
rbdock ($Id: //depot/dev/client3/rdock/2013.1/src/exe/rbdock.cxx#4 $)

>  <Rbt.Library>
libRbt.so (2013.1, Build901 2013/11/27)

>  <Rbt.Parameter_File>
dock.prm

>  <Rbt.Receptor>
rdock.prm

>  <SCORE>
-13.9527

>  <SCORE.INTER>
-4.90431

>  <SCORE.INTER.CONST>
1

>  <SCORE.INTER.POLAR>
-0.469386

>  <SCORE.INTER.REPUL>
0

>  <SCORE.INTER.ROT>
15

>  <SCORE.INTER.VDW>
-23.7084

>  <SCORE.INTER.norm>
-0.114054

>  <SCORE.INTRA>
-9.04842

>  <SCORE.INTRA.DIHEDRAL>
-3.86167

>  <SCORE.INTRA.DIHEDRAL.0>
15.1377

>  <SCORE.INTRA.POLAR>
-0.990199

>  <SCORE.INTRA.POLAR.0>
0

>  <SCORE.INTRA.REPUL>
0

>  <SCORE.INTRA.REPUL.0>
0

>  <SCORE.INTRA.VDW>
-3.7509

>  <SCORE.INTRA.VDW.0>
-4.46419

>  <SCORE.INTRA.norm>
-0.210428

>  <SCORE.RESTR>
0

>  <SCORE.RESTR.CAVITY>
0

>  <SCORE.RESTR.norm>
0

>  <SCORE.SYSTEM>
0

>  <SCORE.SYSTEM.CONST>
0

>  <SCORE.SYSTEM.DIHEDRAL>
0

>  <SCORE.SYSTEM.norm>
0

>  <SCORE.heavy>
43

>  <SCORE.norm>
-0.324482

$$$$
ligands/mol6.pdb
  rDOCK(R)          3D
libRbt.so/2013.1/901 2013/11/27
 49 53  0  0  0  0  0  0  0  0999 V2000
   -5.1117    1.6837   70.8433 N   0  0  0  0  0  0
   -6.3667    1.6944   71.9629 S   0  0  0  0  0  0
   -6.8862    0.3270   71.9729 O   0  0  0  0  0  0
   -5.8413    2.3252   73.1283 O   0  0  0  0  0  0
   -7.5737    2.7365   71.2000 C   0  0  0  0  0  0
   -7.3192    4.1003   71.0494 C   0  0  0  0  0  0
   -8.3064    4.9283   70.5076 C   0  0  0  0  0  0
   -9.5456    4.4026   70.1106 C   0  0  0  0  0  0
  -10.6083    5.3142   69.5398 C   0  0  0  0  0  0
  -11.1170    6.3649   70.5016 C   0  0  0  0  0  0
  -11.6860    5.9756   71.7232 C   0  0  0  0  0  0
  -12.1655    6.9261   72.6258 C   0  0  0  0  0  0
  -12.0340    8.2819   72.3447 C   0  0  0  0  0  0
  -11.4369    8.6839   71.1528 C   0  0  0  0  0  0
  -11.2961   10.0442   70.8539 N   0  0  0  0  0  0
  -12.3673   10.8853   70.6304 C   0  0  0  0  0  0
  -13.5306   10.5372   70.4509 O   0  0  0  0  0  0
  -12.0545   12.2283   70.6883 N   0  0  0  0  0  0
  -12.9326   13.2487   71.0949 C   0  0  0  0  0  0
  -12.9132   14.5229   70.5020 C   0  0  0  0  0  0
  -13.8417   15.4562   70.9933 C   0  0  0  0  0  0
  -14.6949   15.1212   72.0301 C   0  0  0  0  0  0
  -14.7627   13.8927   72.5653 N   0  0  0  0  0  0
  -13.8858   12.9858   72.0880 C   0  0  0  0  0  0
  -11.9578   14.9411   69.3746 C   0  0  0  0  0  0
  -12.4240   14.4990   67.9528 C   0  0  0  0  0  0
  -11.4455   14.7124   66.8849 N   0  0  0  0  0  0
  -10.5288   13.7493   66.4864 C   0  0  0  0  0  0
  -10.5942   13.1580   65.4138 O   0  0  0  0  0  0
   -9.3806   13.5412   67.4945 C   0  0  0  0  0  0
   -9.7470   12.6163   68.6733 C   0  0  0  0  0  0
   -9.4827   11.1210   68.4615 C   0  0  0  0  0  0
   -8.1178   10.8482   67.8399 C   0  0  0  0  0  0
   -7.1168   11.2167   68.7884 O   0  0  0  0  0  0
   -7.9460   11.6478   66.5523 C   0  0  0  0  0  0
   -8.0568   13.1483   66.8190 C   0  0  0  0  0  0
  -11.6267   16.4628   69.4057 C   0  0  0  0  0  0
  -10.4798   16.7920   68.4792 C   0  0  0  0  0  0
  -10.6793   17.6890   67.2892 C   0  0  0  0  0  0
   -9.9057   18.1867   68.4752 C   0  0  0  0  0  0
  -11.0153    7.7353   70.2138 C   0  0  0  0  0  0
   -9.7795    3.0249   70.2609 C   0  0  0  0  0  0
   -8.7978    2.1929   70.8029 C   0  0  0  0  0  0
   -4.4045    1.0090   71.1284 H   0  0  0  0  0  0
   -4.7493    2.6351   70.7465 H   0  0  0  0  0  0
  -10.4533   10.4942   71.1775 H   0  0  0  0  0  0
  -11.0601   12.3825   70.8434 H   0  0  0  0  0  0
  -11.6727   15.4154   66.1958 H   0  0  0  0  0  0
   -7.2019   10.6301   69.5594 H   0  0  0  0  0  0
  1  2  1  0  0  0
  1 44  1  0  0  0
  1 45  1  0  0  0
  2  3  2  0  0  0
  2  4  2  0  0  0
  2  5  1  0  0  0
  5  6  2  0  0  0
  5 43  1  0  0  0
  6  7  1  0  0  0
  7  8  2  0  0  0
  8  9  1  0  0  0
  8 42  1  0  0  0
  9 10  1  0  0  0
 10 11  2  0  0  0
 10 41  1  0  0  0
 11 12  1  0  0  0
 12 13  2  0  0  0
 13 14  1  0  0  0
 14 15  1  0  0  0
 14 41  2  0  0  0
 15 16  1  0  0  0
 15 46  1  0  0  0
 16 17  2  0  0  0
 16 18  1  0  0  0
 18 19  1  0  0  0
 18 47  1  0  0  0
 19 20  2  0  0  0
 19 24  1  0  0  0
 20 21  1  0  0  0
 20 25  1  0  0  0
 21 22  2  0  0  0
 22 23  1  0  0  0
 23 24  2  0  0  0
 25 26  1  0  0  0
 25 37  1  0  0  0
 26 27  1  0  0  0
 27 28  1  0  0  0
 27 48  1  0  0  0
 28 29  2  0  0  0
 28 30  1  0  0  0
 30 31  1  0  0  0
 30 36  1  0  0  0
 31 32  1  0  0  0
 32 33  1  0  0  0
 33 34  1  0  0  0
 33 35  1  0  0  0
 34 49  1  0  0  0
 35 36  1  0  0  0
 37 38  1  0  0  0
 38 39  1  0  0  0
 38 40  1  0  0  0
 39 40  1  0  0  0
 42 43  2  0  0  0
M  END
>  <AUTHOR>
    GENERATED BY OPEN BABEL 2.3.2

>  <CHROM.1>
-59.33884858,-68.15475342,-63.48251241,-58.06849553,-65.74750265,-12.35937731
-149.71469510,-144.27090410,81.92215161,-171.59343005,168.29497334,92.12148174
109.20641567,81.72993964,64.43809097,116.17602506,-10.20622345,9.72852077
69.95104583,-1.18928093,0.60703393,-0.42429803

>  <COMPND>
    UNNAMED

>  <MASTER>
        0    0    0    0    0    0    0    0   82    0   82    0

>  <Name>
ligands/mol6.pdb

>  <RI>
1.69321e+07

>  <Rbt.Current_Directory>
/home/rodrigo/Desktop/Rodrigo/Proyectos/test_OCONDOR/OCONDOR

>  <Rbt.Executable>
rbdock ($Id: //depot/dev/client3/rdock/2013.1/src/exe/rbdock.cxx#4 $)

>  <Rbt.Library>
libRbt.so (2013.1, Build901 2013/11/27)

>  <Rbt.Parameter_File>
dock.prm

>  <Rbt.Receptor>
rdock.prm

>  <SCORE>
-7.15244

>  <SCORE.INTER>
-4.51996

>  <SCORE.INTER.CONST>
1

>  <SCORE.INTER.POLAR>
-0.094936

>  <SCORE.INTER.REPUL>
0

>  <SCORE.INTER.ROT>
15

>  <SCORE.INTER.VDW>
-24.5972

>  <SCORE.INTER.norm>
-0.105115

>  <SCORE.INTRA>
-2.63248

>  <SCORE.INTRA.DIHEDRAL>
-2.00089

>  <SCORE.INTRA.DIHEDRAL.0>
15.1377

>  <SCORE.INTRA.POLAR>
0

>  <SCORE.INTRA.POLAR.0>
0

>  <SCORE.INTRA.REPUL>
0

>  <SCORE.INTRA.REPUL.0>
0

>  <SCORE.INTRA.VDW>
-1.63203

>  <SCORE.INTRA.VDW.0>
-4.46419

>  <SCORE.INTRA.norm>
-0.0612204

>  <SCORE.RESTR>
0

>  <SCORE.RESTR.CAVITY>
0

>  <SCORE.RESTR.norm>
0

>  <SCORE.SYSTEM>
0

>  <SCORE.SYSTEM.CONST>
0

>  <SCORE.SYSTEM.DIHEDRAL>
0

>  <SCORE.SYSTEM.norm>
0

>  <SCORE.heavy>
43

>  <SCORE.norm>
-0.166336

$$$$
ligands/mol6.pdb
  rDOCK(R)          3D
libRbt.so/2013.1/901 2013/11/27
 49 53  0  0  0  0  0  0  0  0999 V2000
   -5.2916   18.4031   71.8123 N   0  0  0  0  0  0
   -4.8534   17.2086   70.7124 S   0  0  0  0  0  0
   -3.9040   17.8508   69.8036 O   0  0  0  0  0  0
   -4.5151   16.0661   71.4949 O   0  0  0  0  0  0
   -6.3530   16.9141   69.8240 C   0  0  0  0  0  0
   -7.0333   17.9808   69.2352 C   0  0  0  0  0  0
   -8.2531   17.7484   68.5937 C   0  0  0  0  0  0
   -8.7968   16.4560   68.5320 C   0  0  0  0  0  0
  -10.1246   16.2237   67.8471 C   0  0  0  0  0  0
  -11.0689   15.3134   68.6003 C   0  0  0  0  0  0
  -11.7701   15.8019   69.7127 C   0  0  0  0  0  0
  -12.6446   14.9807   70.4261 C   0  0  0  0  0  0
  -12.8724   13.6747   70.0056 C   0  0  0  0  0  0
  -12.2121   13.1877   68.8806 C   0  0  0  0  0  0
  -12.4299   11.8759   68.4431 N   0  0  0  0  0  0
  -12.1517   10.7647   69.2132 C   0  0  0  0  0  0
  -12.9272   10.2141   69.9890 O   0  0  0  0  0  0
  -10.8967   10.2302   69.0034 N   0  0  0  0  0  0
  -10.5368    9.4054   67.9226 C   0  0  0  0  0  0
  -10.2912    8.0315   68.0887 C   0  0  0  0  0  0
   -9.9421    7.3137   66.9322 C   0  0  0  0  0  0
   -9.8209    7.9583   65.7137 C   0  0  0  0  0  0
  -10.1078    9.2562   65.5311 N   0  0  0  0  0  0
  -10.4597    9.9493   66.6334 C   0  0  0  0  0  0
  -10.3816    7.2897   69.4304 C   0  0  0  0  0  0
   -9.3125    7.7374   70.4749 C   0  0  0  0  0  0
   -7.9405    7.3245   70.1742 N   0  0  0  0  0  0
   -7.6299    6.2438   69.3604 C   0  0  0  0  0  0
   -7.3771    6.3496   68.1649 O   0  0  0  0  0  0
   -7.5680    4.9027   70.1191 C   0  0  0  0  0  0
   -8.8497    4.5767   70.9129 C   0  0  0  0  0  0
   -9.9307    3.7983   70.1538 C   0  0  0  0  0  0
   -9.3623    2.6299   69.3565 C   0  0  0  0  0  0
   -8.8642    1.6629   70.2808 O   0  0  0  0  0  0
   -8.2441    3.1044   68.4339 C   0  0  0  0  0  0
   -7.1044    3.7357   69.2322 C   0  0  0  0  0  0
  -11.8132    7.3341   70.0426 C   0  0  0  0  0  0
  -11.9081    6.4659   71.2752 C   0  0  0  0  0  0
  -12.0273    7.0760   72.6441 C   0  0  0  0  0  0
  -13.2117    6.3886   72.0299 C   0  0  0  0  0  0
  -11.2835   13.9846   68.2010 C   0  0  0  0  0  0
   -8.0920   15.3928   69.1222 C   0  0  0  0  0  0
   -6.8737   15.6190   69.7658 C   0  0  0  0  0  0
   -5.8581   17.9948   72.5533 H   0  0  0  0  0  0
   -5.7648   19.1567   71.3082 H   0  0  0  0  0  0
  -13.1376   11.7457   67.7362 H   0  0  0  0  0  0
  -10.1631   10.8057   69.4125 H   0  0  0  0  0  0
   -7.2255    8.0337   70.2556 H   0  0  0  0  0  0
   -8.2188    2.1037   70.8594 H   0  0  0  0  0  0
  1  2  1  0  0  0
  1 44  1  0  0  0
  1 45  1  0  0  0
  2  3  2  0  0  0
  2  4  2  0  0  0
  2  5  1  0  0  0
  5  6  2  0  0  0
  5 43  1  0  0  0
  6  7  1  0  0  0
  7  8  2  0  0  0
  8  9  1  0  0  0
  8 42  1  0  0  0
  9 10  1  0  0  0
 10 11  2  0  0  0
 10 41  1  0  0  0
 11 12  1  0  0  0
 12 13  2  0  0  0
 13 14  1  0  0  0
 14 15  1  0  0  0
 14 41  2  0  0  0
 15 16  1  0  0  0
 15 46  1  0  0  0
 16 17  2  0  0  0
 16 18  1  0  0  0
 18 19  1  0  0  0
 18 47  1  0  0  0
 19 20  2  0  0  0
 19 24  1  0  0  0
 20 21  1  0  0  0
 20 25  1  0  0  0
 21 22  2  0  0  0
 22 23  1  0  0  0
 23 24  2  0  0  0
 25 26  1  0  0  0
 25 37  1  0  0  0
 26 27  1  0  0  0
 27 28  1  0  0  0
 27 48  1  0  0  0
 28 29  2  0  0  0
 28 30  1  0  0  0
 30 31  1  0  0  0
 30 36  1  0  0  0
 31 32  1  0  0  0
 32 33  1  0  0  0
 33 34  1  0  0  0
 33 35  1  0  0  0
 34 49  1  0  0  0
 35 36  1  0  0  0
 37 38  1  0  0  0
 38 39  1  0  0  0
 38 40  1  0  0  0
 39 40  1  0  0  0
 42 43  2  0  0  0
M  END
>  <AUTHOR>
    GENERATED BY OPEN BABEL 2.3.2

>  <CHROM.1>
-172.48737396,53.15030393,-135.98220192,76.79343780,-60.81727824,89.95175729
-79.04005360,-108.08580187,-65.63544419,-70.93736652,173.45911478,-23.19645894
95.47316199,54.82229382,-55.84036734,108.67792586,-9.26466694,10.71293257
69.43620128,-1.37164601,0.14910589,3.13164526

>  <COMPND>
    UNNAMED

>  <MASTER>
        0    0    0    0    0    0    0    0   82    0   82    0

>  <Name>
ligands/mol6.pdb

>  <RI>
1.69321e+07

>  <Rbt.Current_Directory>
/home/rodrigo/Desktop/Rodrigo/Proyectos/test_OCONDOR/OCONDOR

>  <Rbt.Executable>
rbdock ($Id: //depot/dev/client3/rdock/2013.1/src/exe/rbdock.cxx#4 $)

>  <Rbt.Library>
libRbt.so (2013.1, Build901 2013/11/27)

>  <Rbt.Parameter_File>
dock.prm

>  <Rbt.Receptor>
rdock.prm

>  <SCORE>
-7.46782

>  <SCORE.INTER>
-3.36106

>  <SCORE.INTER.CONST>
1

>  <SCORE.INTER.POLAR>
-0.860409

>  <SCORE.INTER.REPUL>
0

>  <SCORE.INTER.ROT>
15

>  <SCORE.INTER.VDW>
-20.8357

>  <SCORE.INTER.norm>
-0.0781641

>  <SCORE.INTRA>
-4.10676

>  <SCORE.INTRA.DIHEDRAL>
-3.08117

>  <SCORE.INTRA.DIHEDRAL.0>
15.1377

>  <SCORE.INTRA.POLAR>
0

>  <SCORE.INTRA.POLAR.0>
0

>  <SCORE.INTRA.REPUL>
0

>  <SCORE.INTRA.REPUL.0>
0

>  <SCORE.INTRA.VDW>
-2.56617

>  <SCORE.INTRA.VDW.0>
-4.46419

>  <SCORE.INTRA.norm>
-0.095506

>  <SCORE.RESTR>
0

>  <SCORE.RESTR.CAVITY>
0

>  <SCORE.RESTR.norm>
0

>  <SCORE.SYSTEM>
0

>  <SCORE.SYSTEM.CONST>
0

>  <SCORE.SYSTEM.DIHEDRAL>
0

>  <SCORE.SYSTEM.norm>
0

>  <SCORE.heavy>
43

>  <SCORE.norm>
-0.17367

$$$$
