ligands/mol2.pdb
  rDOCK(R)          3D
libRbt.so/2013.1/901 2013/11/27
 45 48  0  0  0  0  0  0  0  0999 V2000
  -12.3756    5.4003   72.9740 N   0  0  0  0  0  0
  -11.5381    6.8600   72.8126 S   0  0  0  0  0  0
  -12.4375    7.9479   73.0886 O   0  0  0  0  0  0
  -10.3049    6.6927   73.5635 O   0  0  0  0  0  0
  -11.1281    6.9122   71.0847 C   0  0  0  0  0  0
  -11.8737    6.1947   70.1436 C   0  0  0  0  0  0
  -11.6219    6.3777   68.7782 C   0  0  0  0  0  0
  -10.6386    7.2822   68.3425 C   0  0  0  0  0  0
  -10.4932    7.6040   66.8559 C   0  0  0  0  0  0
  -10.3793    9.0803   66.4759 C   0  0  0  0  0  0
   -9.3908    9.5486   65.5968 C   0  0  0  0  0  0
   -9.3257   10.8920   65.2271 C   0  0  0  0  0  0
  -10.2768   11.7911   65.6955 C   0  0  0  0  0  0
  -11.2617   11.3662   66.5863 C   0  0  0  0  0  0
  -12.2367   12.3139   66.9698 N   0  0  0  0  0  0
  -12.3868   13.5556   66.3805 C   0  0  0  0  0  0
  -12.4089   13.7769   65.1790 O   0  0  0  0  0  0
  -12.5098   14.5247   67.3652 N   0  0  0  0  0  0
  -11.4491   14.9481   68.1880 C   0  0  0  0  0  0
  -10.1822   15.0774   67.6156 C   0  0  0  0  0  0
   -9.0846   15.4558   68.3974 C   0  0  0  0  0  0
   -7.7247   15.6887   67.7889 C   0  0  0  0  0  0
   -6.8346   16.6988   68.5315 C   0  0  0  0  0  0
   -6.4447   17.8596   67.7364 N   0  0  0  0  0  0
   -5.7560   17.7167   66.5462 C   0  0  0  0  0  0
   -5.4140   16.6134   66.1209 O   0  0  0  0  0  0
   -5.3456   19.0366   65.8574 C   0  0  0  0  0  0
   -6.5444   19.9208   65.4812 C   0  0  0  0  0  0
   -7.0866   20.8482   66.5770 C   0  0  0  0  0  0
   -6.0578   21.4497   67.5377 C   0  0  0  0  0  0
   -5.5796   22.6914   67.0199 O   0  0  0  0  0  0
   -4.8497   20.5672   67.8273 C   0  0  0  0  0  0
   -4.2937   19.8707   66.5886 C   0  0  0  0  0  0
   -9.3187   15.6717   69.7524 C   0  0  0  0  0  0
  -10.5292   15.5464   70.3441 N   0  0  0  0  0  0
  -11.5714   15.1961   69.5492 C   0  0  0  0  0  0
  -11.3066   10.0188   66.9872 C   0  0  0  0  0  0
   -9.8591    7.9418   69.3080 C   0  0  0  0  0  0
  -10.1038    7.7606   70.6725 C   0  0  0  0  0  0
  -13.2870    5.3773   72.5155 H   0  0  0  0  0  0
  -12.4015    5.0974   73.9594 H   0  0  0  0  0  0
  -13.1243   11.9307   67.2604 H   0  0  0  0  0  0
  -13.4297   14.5369   67.7790 H   0  0  0  0  0  0
   -6.9288   18.7317   67.9089 H   0  0  0  0  0  0
   -4.9476   23.0412   67.6730 H   0  0  0  0  0  0
  1  2  1  0  0  0
  1 40  1  0  0  0
  1 41  1  0  0  0
  2  3  2  0  0  0
  2  4  2  0  0  0
  2  5  1  0  0  0
  5  6  2  0  0  0
  5 39  1  0  0  0
  6  7  1  0  0  0
  7  8  2  0  0  0
  8  9  1  0  0  0
  8 38  1  0  0  0
  9 10  1  0  0  0
 10 11  2  0  0  0
 10 37  1  0  0  0
 11 12  1  0  0  0
 12 13  2  0  0  0
 13 14  1  0  0  0
 14 15  1  0  0  0
 14 37  2  0  0  0
 15 16  1  0  0  0
 15 42  1  0  0  0
 16 17  2  0  0  0
 16 18  1  0  0  0
 18 19  1  0  0  0
 18 43  1  0  0  0
 19 20  2  0  0  0
 19 36  1  0  0  0
 20 21  1  0  0  0
 21 22  1  0  0  0
 21 34  2  0  0  0
 22 23  1  0  0  0
 23 24  1  0  0  0
 24 25  1  0  0  0
 24 44  1  0  0  0
 25 26  2  0  0  0
 25 27  1  0  0  0
 27 28  1  0  0  0
 27 33  1  0  0  0
 28 29  1  0  0  0
 29 30  1  0  0  0
 30 31  1  0  0  0
 30 32  1  0  0  0
 31 45  1  0  0  0
 32 33  1  0  0  0
 34 35  1  0  0  0
 35 36  2  0  0  0
 38 39  2  0  0  0
M  END
>  <AUTHOR>
    GENERATED BY OPEN BABEL 2.3.2

>  <CHROM.1>
46.46863147,23.68266662,132.74745713,132.09507175,9.64258061,46.69248109
71.54447877,38.75908667,151.57128277,-119.57440415,-58.14863008,-60.75866984
178.72993400,-9.48182189,13.05616882,68.34220729,-2.48373474,-1.08669545
-1.14656076

>  <COMPND>
    UNNAMED

>  <MASTER>
        0    0    0    0    0    0    0    0   72    0   72    0

>  <Name>
ligands/mol2.pdb

>  <RI>
1.80855e+07

>  <Rbt.Current_Directory>
/home/rochoa/Projects/OCONDOR

>  <Rbt.Executable>
rbdock ($Id: //depot/dev/client3/rdock/2013.1/src/exe/rbdock.cxx#4 $)

>  <Rbt.Library>
libRbt.so (2013.1, Build901 2013/11/27)

>  <Rbt.Parameter_File>
dock.prm

>  <Rbt.Receptor>
rdock.prm

>  <SCORE>
-15.1513

>  <SCORE.INTER>
-14.8515

>  <SCORE.INTER.CONST>
1

>  <SCORE.INTER.POLAR>
-2.50997

>  <SCORE.INTER.REPUL>
0.00777219

>  <SCORE.INTER.ROT>
12

>  <SCORE.INTER.VDW>
-23.7565

>  <SCORE.INTER.norm>
-0.380808

>  <SCORE.INTRA>
-0.299774

>  <SCORE.INTRA.DIHEDRAL>
-2.63312

>  <SCORE.INTRA.DIHEDRAL.0>
15.348

>  <SCORE.INTRA.POLAR>
0

>  <SCORE.INTRA.POLAR.0>
0

>  <SCORE.INTRA.REPUL>
0

>  <SCORE.INTRA.REPUL.0>
0

>  <SCORE.INTRA.VDW>
1.01679

>  <SCORE.INTRA.VDW.0>
-3.74855

>  <SCORE.INTRA.norm>
-0.0076865

>  <SCORE.RESTR>
0

>  <SCORE.RESTR.CAVITY>
0

>  <SCORE.RESTR.norm>
0

>  <SCORE.SYSTEM>
0

>  <SCORE.SYSTEM.CONST>
0

>  <SCORE.SYSTEM.DIHEDRAL>
0

>  <SCORE.SYSTEM.norm>
0

>  <SCORE.heavy>
39

>  <SCORE.norm>
-0.388495

$$$$
ligands/mol2.pdb
  rDOCK(R)          3D
libRbt.so/2013.1/901 2013/11/27
 45 48  0  0  0  0  0  0  0  0999 V2000
  -10.2282    5.9938   76.9579 N   0  0  0  0  0  0
   -9.4056    5.5147   75.5607 S   0  0  0  0  0  0
   -8.0967    6.1107   75.5614 O   0  0  0  0  0  0
   -9.5776    4.0740   75.4759 O   0  0  0  0  0  0
  -10.3470    6.2599   74.2511 C   0  0  0  0  0  0
  -11.3362    5.5401   73.5729 C   0  0  0  0  0  0
  -12.1625    6.1993   72.6543 C   0  0  0  0  0  0
  -12.0182    7.5766   72.4155 C   0  0  0  0  0  0
  -13.0342    8.3181   71.5479 C   0  0  0  0  0  0
  -12.5166    9.5098   70.7425 C   0  0  0  0  0  0
  -12.7241   10.8345   71.1564 C   0  0  0  0  0  0
  -12.2095   11.9101   70.4327 C   0  0  0  0  0  0
  -11.4371   11.6825   69.2996 C   0  0  0  0  0  0
  -11.2266   10.3806   68.8469 C   0  0  0  0  0  0
  -10.3770   10.2156   67.7302 N   0  0  0  0  0  0
   -8.9962   10.2427   67.7943 C   0  0  0  0  0  0
   -8.2344   10.0091   66.8678 O   0  0  0  0  0  0
   -8.5978   10.5777   69.0800 N   0  0  0  0  0  0
   -7.7421   11.6538   69.3822 C   0  0  0  0  0  0
   -8.0414   12.9058   68.8417 C   0  0  0  0  0  0
   -7.2017   14.0005   69.0771 C   0  0  0  0  0  0
   -7.5469   15.3817   68.5801 C   0  0  0  0  0  0
   -6.6022   15.9522   67.5096 C   0  0  0  0  0  0
   -6.9577   17.2881   67.0398 N   0  0  0  0  0  0
   -8.0352   17.4903   66.1975 C   0  0  0  0  0  0
   -8.7205   16.5560   65.7819 O   0  0  0  0  0  0
   -8.2401   18.9460   65.7243 C   0  0  0  0  0  0
   -8.6989   19.8883   66.8478 C   0  0  0  0  0  0
   -7.5987   20.4984   67.7266 C   0  0  0  0  0  0
   -6.2774   20.8400   67.0334 C   0  0  0  0  0  0
   -6.3241   22.1767   66.5336 O   0  0  0  0  0  0
   -5.8964   19.9218   65.8786 C   0  0  0  0  0  0
   -7.0689   19.5716   64.9669 C   0  0  0  0  0  0
   -6.0652   13.7707   69.8473 C   0  0  0  0  0  0
   -5.7371   12.5703   70.3788 N   0  0  0  0  0  0
   -6.5861   11.5383   70.1435 C   0  0  0  0  0  0
  -11.7748    9.2971   69.5566 C   0  0  0  0  0  0
  -10.9753    8.2634   73.0602 C   0  0  0  0  0  0
  -10.1452    7.6098   73.9758 C   0  0  0  0  0  0
  -11.1621    5.5958   77.0620 H   0  0  0  0  0  0
  -10.2018    7.0189   77.0677 H   0  0  0  0  0  0
  -10.7038    9.5686   67.0275 H   0  0  0  0  0  0
   -8.5356    9.7728   69.6847 H   0  0  0  0  0  0
   -6.5989   18.0798   67.5585 H   0  0  0  0  0  0
   -7.1194   22.2382   65.9751 H   0  0  0  0  0  0
  1  2  1  0  0  0
  1 40  1  0  0  0
  1 41  1  0  0  0
  2  3  2  0  0  0
  2  4  2  0  0  0
  2  5  1  0  0  0
  5  6  2  0  0  0
  5 39  1  0  0  0
  6  7  1  0  0  0
  7  8  2  0  0  0
  8  9  1  0  0  0
  8 38  1  0  0  0
  9 10  1  0  0  0
 10 11  2  0  0  0
 10 37  1  0  0  0
 11 12  1  0  0  0
 12 13  2  0  0  0
 13 14  1  0  0  0
 14 15  1  0  0  0
 14 37  2  0  0  0
 15 16  1  0  0  0
 15 42  1  0  0  0
 16 17  2  0  0  0
 16 18  1  0  0  0
 18 19  1  0  0  0
 18 43  1  0  0  0
 19 20  2  0  0  0
 19 36  1  0  0  0
 20 21  1  0  0  0
 21 22  1  0  0  0
 21 34  2  0  0  0
 22 23  1  0  0  0
 23 24  1  0  0  0
 24 25  1  0  0  0
 24 44  1  0  0  0
 25 26  2  0  0  0
 25 27  1  0  0  0
 27 28  1  0  0  0
 27 33  1  0  0  0
 28 29  1  0  0  0
 29 30  1  0  0  0
 30 31  1  0  0  0
 30 32  1  0  0  0
 31 45  1  0  0  0
 32 33  1  0  0  0
 34 35  1  0  0  0
 35 36  2  0  0  0
 38 39  2  0  0  0
M  END
>  <AUTHOR>
    GENERATED BY OPEN BABEL 2.3.2

>  <CHROM.1>
-178.19683208,-95.67561313,-149.02155424,-101.36130123,79.11854370,174.43679959
-124.72124143,50.29238390,-114.34151921,179.80317962,-73.91401494,-69.45437616
-54.11073009,-9.05283298,12.06006487,70.03379184,-1.83821733,-0.57180825
-0.68573554

>  <COMPND>
    UNNAMED

>  <MASTER>
        0    0    0    0    0    0    0    0   72    0   72    0

>  <Name>
ligands/mol2.pdb

>  <RI>
1.80855e+07

>  <Rbt.Current_Directory>
/home/rochoa/Projects/OCONDOR

>  <Rbt.Executable>
rbdock ($Id: //depot/dev/client3/rdock/2013.1/src/exe/rbdock.cxx#4 $)

>  <Rbt.Library>
libRbt.so (2013.1, Build901 2013/11/27)

>  <Rbt.Parameter_File>
dock.prm

>  <Rbt.Receptor>
rdock.prm

>  <SCORE>
-17.516

>  <SCORE.INTER>
-12.6994

>  <SCORE.INTER.CONST>
1

>  <SCORE.INTER.POLAR>
-2.30328

>  <SCORE.INTER.REPUL>
0.104125

>  <SCORE.INTER.ROT>
12

>  <SCORE.INTER.VDW>
-22.7889

>  <SCORE.INTER.norm>
-0.325627

>  <SCORE.INTRA>
-4.8166

>  <SCORE.INTRA.DIHEDRAL>
-8.37177

>  <SCORE.INTRA.DIHEDRAL.0>
15.348

>  <SCORE.INTRA.POLAR>
0

>  <SCORE.INTRA.POLAR.0>
0

>  <SCORE.INTRA.REPUL>
0

>  <SCORE.INTRA.REPUL.0>
0

>  <SCORE.INTRA.VDW>
-0.630715

>  <SCORE.INTRA.VDW.0>
-3.74855

>  <SCORE.INTRA.norm>
-0.123503

>  <SCORE.RESTR>
0

>  <SCORE.RESTR.CAVITY>
0

>  <SCORE.RESTR.norm>
0

>  <SCORE.SYSTEM>
0

>  <SCORE.SYSTEM.CONST>
0

>  <SCORE.SYSTEM.DIHEDRAL>
0

>  <SCORE.SYSTEM.norm>
0

>  <SCORE.heavy>
39

>  <SCORE.norm>
-0.449129

$$$$
ligands/mol2.pdb
  rDOCK(R)          3D
libRbt.so/2013.1/901 2013/11/27
 45 48  0  0  0  0  0  0  0  0999 V2000
  -11.1152   17.0012   65.7010 N   0  0  0  0  0  0
   -9.7695   16.2244   66.3674 S   0  0  0  0  0  0
   -8.9081   15.7858   65.3024 O   0  0  0  0  0  0
   -9.2832   17.1065   67.4152 O   0  0  0  0  0  0
  -10.4647   14.7830   67.1393 C   0  0  0  0  0  0
  -11.8391   14.6846   67.3798 C   0  0  0  0  0  0
  -12.3737   13.4775   67.8469 C   0  0  0  0  0  0
  -11.5483   12.3611   68.0645 C   0  0  0  0  0  0
  -12.1629   11.0039   68.4036 C   0  0  0  0  0  0
  -12.5460   10.7637   69.8638 C   0  0  0  0  0  0
  -12.8887   11.8163   70.7263 C   0  0  0  0  0  0
  -13.2765   11.5773   72.0446 C   0  0  0  0  0  0
  -13.3724   10.2739   72.5181 C   0  0  0  0  0  0
  -13.0207    9.2039   71.6962 C   0  0  0  0  0  0
  -13.2059    7.9034   72.2160 N   0  0  0  0  0  0
  -12.4517    6.8049   71.8470 C   0  0  0  0  0  0
  -12.2203    6.4511   70.7005 O   0  0  0  0  0  0
  -11.9911    6.1556   72.9829 N   0  0  0  0  0  0
  -10.7377    6.4013   73.5747 C   0  0  0  0  0  0
   -9.6281    6.5333   72.7376 C   0  0  0  0  0  0
   -8.3525    6.7379   73.2758 C   0  0  0  0  0  0
   -7.1517    6.9718   72.3940 C   0  0  0  0  0  0
   -6.6658    8.4284   72.3149 C   0  0  0  0  0  0
   -6.3446    9.0293   73.6062 N   0  0  0  0  0  0
   -5.3254    8.5314   74.3967 C   0  0  0  0  0  0
   -4.6673    7.5454   74.0651 O   0  0  0  0  0  0
   -5.1550    9.2217   75.7676 C   0  0  0  0  0  0
   -4.5556   10.6326   75.6641 C   0  0  0  0  0  0
   -5.5376   11.7792   75.3889 C   0  0  0  0  0  0
   -6.9250   11.6619   76.0249 C   0  0  0  0  0  0
   -6.9166   12.2633   77.3199 O   0  0  0  0  0  0
   -7.4505   10.2392   76.1732 C   0  0  0  0  0  0
   -6.3965    9.2485   76.6591 C   0  0  0  0  0  0
   -8.2518    6.7815   74.6634 C   0  0  0  0  0  0
   -9.3019    6.6475   75.5062 N   0  0  0  0  0  0
  -10.5245    6.4693   74.9455 C   0  0  0  0  0  0
  -12.5957    9.4463   70.3775 C   0  0  0  0  0  0
  -10.1629   12.5048   67.8780 C   0  0  0  0  0  0
   -9.6231   13.7085   67.4150 C   0  0  0  0  0  0
  -11.6131   16.4614   64.9924 H   0  0  0  0  0  0
  -10.8762   17.9577   65.3989 H   0  0  0  0  0  0
  -13.4776    7.8583   73.1873 H   0  0  0  0  0  0
  -12.3437    5.2134   73.0562 H   0  0  0  0  0  0
   -6.6698    9.9719   73.7800 H   0  0  0  0  0  0
   -6.2421   11.7930   77.8416 H   0  0  0  0  0  0
  1  2  1  0  0  0
  1 40  1  0  0  0
  1 41  1  0  0  0
  2  3  2  0  0  0
  2  4  2  0  0  0
  2  5  1  0  0  0
  5  6  2  0  0  0
  5 39  1  0  0  0
  6  7  1  0  0  0
  7  8  2  0  0  0
  8  9  1  0  0  0
  8 38  1  0  0  0
  9 10  1  0  0  0
 10 11  2  0  0  0
 10 37  1  0  0  0
 11 12  1  0  0  0
 12 13  2  0  0  0
 13 14  1  0  0  0
 14 15  1  0  0  0
 14 37  2  0  0  0
 15 16  1  0  0  0
 15 42  1  0  0  0
 16 17  2  0  0  0
 16 18  1  0  0  0
 18 19  1  0  0  0
 18 43  1  0  0  0
 19 20  2  0  0  0
 19 36  1  0  0  0
 20 21  1  0  0  0
 21 22  1  0  0  0
 21 34  2  0  0  0
 22 23  1  0  0  0
 23 24  1  0  0  0
 24 25  1  0  0  0
 24 44  1  0  0  0
 25 26  2  0  0  0
 25 27  1  0  0  0
 27 28  1  0  0  0
 27 33  1  0  0  0
 28 29  1  0  0  0
 29 30  1  0  0  0
 30 31  1  0  0  0
 30 32  1  0  0  0
 31 45  1  0  0  0
 32 33  1  0  0  0
 34 35  1  0  0  0
 35 36  2  0  0  0
 38 39  2  0  0  0
M  END
>  <AUTHOR>
    GENERATED BY OPEN BABEL 2.3.2

>  <CHROM.1>
52.77783404,-15.65355582,-82.36748797,27.33242629,-151.71224888,-50.04318998
-93.52262634,-43.01173794,103.70656130,56.36032847,63.03570434,-72.48008818
-58.91412625,-9.54882990,10.61451260,71.57825558,-1.91550191,0.55469876,2.46861680

>  <COMPND>
    UNNAMED

>  <MASTER>
        0    0    0    0    0    0    0    0   72    0   72    0

>  <Name>
ligands/mol2.pdb

>  <RI>
1.80855e+07

>  <Rbt.Current_Directory>
/home/rochoa/Projects/OCONDOR

>  <Rbt.Executable>
rbdock ($Id: //depot/dev/client3/rdock/2013.1/src/exe/rbdock.cxx#4 $)

>  <Rbt.Library>
libRbt.so (2013.1, Build901 2013/11/27)

>  <Rbt.Parameter_File>
dock.prm

>  <Rbt.Receptor>
rdock.prm

>  <SCORE>
-17.219

>  <SCORE.INTER>
-12.1915

>  <SCORE.INTER.CONST>
1

>  <SCORE.INTER.POLAR>
-1.48262

>  <SCORE.INTER.REPUL>
0.0199264

>  <SCORE.INTER.ROT>
12

>  <SCORE.INTER.VDW>
-24.6503

>  <SCORE.INTER.norm>
-0.312603

>  <SCORE.INTRA>
-5.02743

>  <SCORE.INTRA.DIHEDRAL>
-7.86101

>  <SCORE.INTRA.DIHEDRAL.0>
15.348

>  <SCORE.INTRA.POLAR>
0

>  <SCORE.INTRA.POLAR.0>
0

>  <SCORE.INTRA.REPUL>
0

>  <SCORE.INTRA.REPUL.0>
0

>  <SCORE.INTRA.VDW>
-1.09693

>  <SCORE.INTRA.VDW.0>
-3.74855

>  <SCORE.INTRA.norm>
-0.128908

>  <SCORE.RESTR>
0

>  <SCORE.RESTR.CAVITY>
0

>  <SCORE.RESTR.norm>
0

>  <SCORE.SYSTEM>
0

>  <SCORE.SYSTEM.CONST>
0

>  <SCORE.SYSTEM.DIHEDRAL>
0

>  <SCORE.SYSTEM.norm>
0

>  <SCORE.heavy>
39

>  <SCORE.norm>
-0.441512

$$$$
ligands/mol2.pdb
  rDOCK(R)          3D
libRbt.so/2013.1/901 2013/11/27
 45 48  0  0  0  0  0  0  0  0999 V2000
   -7.8133    8.5580   73.5636 N   0  0  0  0  0  0
   -6.7000    8.3203   72.3136 S   0  0  0  0  0  0
   -5.6037    9.2356   72.4839 O   0  0  0  0  0  0
   -6.4803    6.8851   72.2483 O   0  0  0  0  0  0
   -7.5998    8.8066   70.8609 C   0  0  0  0  0  0
   -7.1971    8.3884   69.5883 C   0  0  0  0  0  0
   -8.0121    8.6597   68.4822 C   0  0  0  0  0  0
   -9.2345    9.3353   68.6374 C   0  0  0  0  0  0
  -10.1947    9.4702   67.4564 C   0  0  0  0  0  0
  -10.0567   10.7240   66.5928 C   0  0  0  0  0  0
   -9.1585   11.7535   66.9132 C   0  0  0  0  0  0
   -9.0140   12.8721   66.0926 C   0  0  0  0  0  0
   -9.7349   12.9657   64.9078 C   0  0  0  0  0  0
  -10.6515   11.9719   64.5667 C   0  0  0  0  0  0
  -11.3003   12.0941   63.3177 N   0  0  0  0  0  0
  -12.5454   12.6690   63.1424 C   0  0  0  0  0  0
  -13.5613   12.0808   62.8028 O   0  0  0  0  0  0
  -12.4713   14.0276   63.4116 N   0  0  0  0  0  0
  -12.2803   14.5644   64.6988 C   0  0  0  0  0  0
  -11.3560   15.5998   64.8507 C   0  0  0  0  0  0
  -11.0980   16.1421   66.1149 C   0  0  0  0  0  0
  -10.1719   17.3185   66.2954 C   0  0  0  0  0  0
  -10.5760   18.5969   65.5427 C   0  0  0  0  0  0
   -9.6448   19.7104   65.6997 N   0  0  0  0  0  0
   -8.2824   19.5353   65.5429 C   0  0  0  0  0  0
   -7.7922   18.4333   65.2970 O   0  0  0  0  0  0
   -7.4195   20.7866   65.8157 C   0  0  0  0  0  0
   -7.5085   21.2777   67.2688 C   0  0  0  0  0  0
   -6.5698   20.6070   68.2808 C   0  0  0  0  0  0
   -5.1838   20.2058   67.7697 C   0  0  0  0  0  0
   -4.2677   21.2849   67.9563 O   0  0  0  0  0  0
   -5.1292   19.7938   66.3037 C   0  0  0  0  0  0
   -5.9550   20.6924   65.3876 C   0  0  0  0  0  0
  -11.7851   15.5890   67.1917 C   0  0  0  0  0  0
  -12.6795   14.5793   67.0849 N   0  0  0  0  0  0
  -12.9160   14.0933   65.8404 C   0  0  0  0  0  0
  -10.8235   10.8606   65.4115 C   0  0  0  0  0  0
   -9.5853    9.8022   69.9156 C   0  0  0  0  0  0
   -8.7741    9.5370   71.0230 C   0  0  0  0  0  0
   -8.7255    8.1267   73.4114 H   0  0  0  0  0  0
   -7.8661    9.5541   73.8253 H   0  0  0  0  0  0
  -10.6951   12.2706   62.5292 H   0  0  0  0  0  0
  -13.0311   14.5760   62.7765 H   0  0  0  0  0  0
  -10.0187   20.6487   65.6337 H   0  0  0  0  0  0
   -4.2272   21.4541   68.9144 H   0  0  0  0  0  0
  1  2  1  0  0  0
  1 40  1  0  0  0
  1 41  1  0  0  0
  2  3  2  0  0  0
  2  4  2  0  0  0
  2  5  1  0  0  0
  5  6  2  0  0  0
  5 39  1  0  0  0
  6  7  1  0  0  0
  7  8  2  0  0  0
  8  9  1  0  0  0
  8 38  1  0  0  0
  9 10  1  0  0  0
 10 11  2  0  0  0
 10 37  1  0  0  0
 11 12  1  0  0  0
 12 13  2  0  0  0
 13 14  1  0  0  0
 14 15  1  0  0  0
 14 37  2  0  0  0
 15 16  1  0  0  0
 15 42  1  0  0  0
 16 17  2  0  0  0
 16 18  1  0  0  0
 18 19  1  0  0  0
 18 43  1  0  0  0
 19 20  2  0  0  0
 19 36  1  0  0  0
 20 21  1  0  0  0
 21 22  1  0  0  0
 21 34  2  0  0  0
 22 23  1  0  0  0
 23 24  1  0  0  0
 24 25  1  0  0  0
 24 44  1  0  0  0
 25 26  2  0  0  0
 25 27  1  0  0  0
 27 28  1  0  0  0
 27 33  1  0  0  0
 28 29  1  0  0  0
 29 30  1  0  0  0
 30 31  1  0  0  0
 30 32  1  0  0  0
 31 45  1  0  0  0
 32 33  1  0  0  0
 34 35  1  0  0  0
 35 36  2  0  0  0
 38 39  2  0  0  0
M  END
>  <AUTHOR>
    GENERATED BY OPEN BABEL 2.3.2

>  <CHROM.1>
165.63590622,-160.30087632,-91.90252953,-4.34283838,-95.47893194,-112.58179956
-70.08125714,135.24656790,59.30229906,-178.27381416,47.65817734,63.30010495
61.24704628,-9.01239237,13.90827306,67.31340655,-1.55956735,-0.75591964,-0.39477631

>  <COMPND>
    UNNAMED

>  <MASTER>
        0    0    0    0    0    0    0    0   72    0   72    0

>  <Name>
ligands/mol2.pdb

>  <RI>
1.80855e+07

>  <Rbt.Current_Directory>
/home/rochoa/Projects/OCONDOR

>  <Rbt.Executable>
rbdock ($Id: //depot/dev/client3/rdock/2013.1/src/exe/rbdock.cxx#4 $)

>  <Rbt.Library>
libRbt.so (2013.1, Build901 2013/11/27)

>  <Rbt.Parameter_File>
dock.prm

>  <Rbt.Receptor>
rdock.prm

>  <SCORE>
-17.3011

>  <SCORE.INTER>
-12.0419

>  <SCORE.INTER.CONST>
1

>  <SCORE.INTER.POLAR>
-1.43247

>  <SCORE.INTER.REPUL>
0.0300671

>  <SCORE.INTER.ROT>
12

>  <SCORE.INTER.VDW>
-24.7218

>  <SCORE.INTER.norm>
-0.308766

>  <SCORE.INTRA>
-5.25927

>  <SCORE.INTRA.DIHEDRAL>
-8.03576

>  <SCORE.INTRA.DIHEDRAL.0>
15.348

>  <SCORE.INTRA.POLAR>
0

>  <SCORE.INTRA.POLAR.0>
0

>  <SCORE.INTRA.REPUL>
0

>  <SCORE.INTRA.REPUL.0>
0

>  <SCORE.INTRA.VDW>
-1.24139

>  <SCORE.INTRA.VDW.0>
-3.74855

>  <SCORE.INTRA.norm>
-0.134853

>  <SCORE.RESTR>
0

>  <SCORE.RESTR.CAVITY>
0

>  <SCORE.RESTR.norm>
0

>  <SCORE.SYSTEM>
0

>  <SCORE.SYSTEM.CONST>
0

>  <SCORE.SYSTEM.DIHEDRAL>
0

>  <SCORE.SYSTEM.norm>
0

>  <SCORE.heavy>
39

>  <SCORE.norm>
-0.443619

$$$$
ligands/mol2.pdb
  rDOCK(R)          3D
libRbt.so/2013.1/901 2013/11/27
 45 48  0  0  0  0  0  0  0  0999 V2000
   -7.6642   16.7623   65.5717 N   0  0  0  0  0  0
   -8.4313   15.3533   66.1051 S   0  0  0  0  0  0
   -9.3845   14.9356   65.1124 O   0  0  0  0  0  0
   -7.3670   14.4678   66.5476 O   0  0  0  0  0  0
   -9.3324   15.8908   67.5389 C   0  0  0  0  0  0
  -10.4857   16.6727   67.4158 C   0  0  0  0  0  0
  -11.2566   16.9498   68.5515 C   0  0  0  0  0  0
  -10.8925   16.4416   69.8101 C   0  0  0  0  0  0
  -11.8308   16.6013   71.0055 C   0  0  0  0  0  0
  -12.3744   15.3183   71.6341 C   0  0  0  0  0  0
  -12.9419   15.3005   72.9174 C   0  0  0  0  0  0
  -13.4716   14.1301   73.4606 C   0  0  0  0  0  0
  -13.4848   12.9581   72.7132 C   0  0  0  0  0  0
  -12.9119   12.9329   71.4423 C   0  0  0  0  0  0
  -13.0195   11.7294   70.7102 N   0  0  0  0  0  0
  -12.0255   11.2273   69.8909 C   0  0  0  0  0  0
  -11.2049   11.8916   69.2756 O   0  0  0  0  0  0
  -12.0974    9.8423   69.8694 N   0  0  0  0  0  0
  -10.9734    8.9962   69.9162 C   0  0  0  0  0  0
   -9.7082    9.5837   69.9742 C   0  0  0  0  0  0
   -8.5557    8.7896   69.9816 C   0  0  0  0  0  0
   -7.1820    9.3930   70.1327 C   0  0  0  0  0  0
   -6.1595    8.5242   70.8834 C   0  0  0  0  0  0
   -6.6731    7.9012   72.0999 N   0  0  0  0  0  0
   -5.8996    7.0277   72.8416 C   0  0  0  0  0  0
   -4.7612    6.7122   72.4954 O   0  0  0  0  0  0
   -6.6052    6.3897   74.0581 C   0  0  0  0  0  0
   -7.0130    7.4151   75.1271 C   0  0  0  0  0  0
   -8.3579    8.1251   74.9223 C   0  0  0  0  0  0
   -9.4815    7.2980   74.2927 C   0  0  0  0  0  0
  -10.2277    6.6370   75.3150 O   0  0  0  0  0  0
   -9.0257    6.2443   73.2907 C   0  0  0  0  0  0
   -7.7868    5.4741   73.7385 C   0  0  0  0  0  0
   -8.7378    7.4115   69.9092 C   0  0  0  0  0  0
   -9.9465    6.8069   69.8416 N   0  0  0  0  0  0
  -11.0399    7.6101   69.8555 C   0  0  0  0  0  0
  -12.3459   14.1043   70.9079 C   0  0  0  0  0  0
   -9.6952   15.7139   69.9188 C   0  0  0  0  0  0
   -8.9198   15.4370   68.7889 C   0  0  0  0  0  0
   -7.2723   17.3429   66.3138 H   0  0  0  0  0  0
   -8.2649   17.2825   64.9144 H   0  0  0  0  0  0
  -13.5365   10.9900   71.1632 H   0  0  0  0  0  0
  -12.8884    9.5070   69.3407 H   0  0  0  0  0  0
   -7.4733    8.3312   72.5464 H   0  0  0  0  0  0
  -11.0077    6.2459   74.8825 H   0  0  0  0  0  0
  1  2  1  0  0  0
  1 40  1  0  0  0
  1 41  1  0  0  0
  2  3  2  0  0  0
  2  4  2  0  0  0
  2  5  1  0  0  0
  5  6  2  0  0  0
  5 39  1  0  0  0
  6  7  1  0  0  0
  7  8  2  0  0  0
  8  9  1  0  0  0
  8 38  1  0  0  0
  9 10  1  0  0  0
 10 11  2  0  0  0
 10 37  1  0  0  0
 11 12  1  0  0  0
 12 13  2  0  0  0
 13 14  1  0  0  0
 14 15  1  0  0  0
 14 37  2  0  0  0
 15 16  1  0  0  0
 15 42  1  0  0  0
 16 17  2  0  0  0
 16 18  1  0  0  0
 18 19  1  0  0  0
 18 43  1  0  0  0
 19 20  2  0  0  0
 19 36  1  0  0  0
 20 21  1  0  0  0
 21 22  1  0  0  0
 21 34  2  0  0  0
 22 23  1  0  0  0
 23 24  1  0  0  0
 24 25  1  0  0  0
 24 44  1  0  0  0
 25 26  2  0  0  0
 25 27  1  0  0  0
 27 28  1  0  0  0
 27 33  1  0  0  0
 28 29  1  0  0  0
 29 30  1  0  0  0
 30 31  1  0  0  0
 30 32  1  0  0  0
 31 45  1  0  0  0
 32 33  1  0  0  0
 34 35  1  0  0  0
 35 36  2  0  0  0
 38 39  2  0  0  0
M  END
>  <AUTHOR>
    GENERATED BY OPEN BABEL 2.3.2

>  <CHROM.1>
156.17150870,73.28560634,117.17004437,162.86362174,-142.72595540,-30.09053149
-138.53998886,-0.67005893,147.11694440,-44.64152945,176.10080084,-63.90754747
171.09837429,-9.62578852,11.39121431,70.54072356,-1.83556513,-0.63317683
2.46861732

>  <COMPND>
    UNNAMED

>  <MASTER>
        0    0    0    0    0    0    0    0   72    0   72    0

>  <Name>
ligands/mol2.pdb

>  <RI>
1.80855e+07

>  <Rbt.Current_Directory>
/home/rochoa/Projects/OCONDOR

>  <Rbt.Executable>
rbdock ($Id: //depot/dev/client3/rdock/2013.1/src/exe/rbdock.cxx#4 $)

>  <Rbt.Library>
libRbt.so (2013.1, Build901 2013/11/27)

>  <Rbt.Parameter_File>
dock.prm

>  <Rbt.Receptor>
rdock.prm

>  <SCORE>
-14.5275

>  <SCORE.INTER>
-11.4154

>  <SCORE.INTER.CONST>
1

>  <SCORE.INTER.POLAR>
-1.67694

>  <SCORE.INTER.REPUL>
0.0307921

>  <SCORE.INTER.ROT>
12

>  <SCORE.INTER.VDW>
-23.2678

>  <SCORE.INTER.norm>
-0.292703

>  <SCORE.INTRA>
-3.11211

>  <SCORE.INTRA.DIHEDRAL>
-6.37141

>  <SCORE.INTRA.DIHEDRAL.0>
15.348

>  <SCORE.INTRA.POLAR>
0

>  <SCORE.INTRA.POLAR.0>
0

>  <SCORE.INTRA.REPUL>
0

>  <SCORE.INTRA.REPUL.0>
0

>  <SCORE.INTRA.VDW>
0.073595

>  <SCORE.INTRA.VDW.0>
-3.74855

>  <SCORE.INTRA.norm>
-0.0797977

>  <SCORE.RESTR>
0

>  <SCORE.RESTR.CAVITY>
0

>  <SCORE.RESTR.norm>
0

>  <SCORE.SYSTEM>
0

>  <SCORE.SYSTEM.CONST>
0

>  <SCORE.SYSTEM.DIHEDRAL>
0

>  <SCORE.SYSTEM.norm>
0

>  <SCORE.heavy>
39

>  <SCORE.norm>
-0.372501

$$$$
ligands/mol2.pdb
  rDOCK(R)          3D
libRbt.so/2013.1/901 2013/11/27
 45 48  0  0  0  0  0  0  0  0999 V2000
   -9.1431   21.4826   67.2958 N   0  0  0  0  0  0
   -9.0706   20.3883   66.0092 S   0  0  0  0  0  0
  -10.0049   20.7968   64.9949 O   0  0  0  0  0  0
   -7.6578   20.2235   65.7102 O   0  0  0  0  0  0
   -9.6631   18.8726   66.7222 C   0  0  0  0  0  0
   -9.0045   17.6603   66.4918 C   0  0  0  0  0  0
   -9.4044   16.5137   67.1893 C   0  0  0  0  0  0
  -10.4501   16.5695   68.1265 C   0  0  0  0  0  0
  -10.7604   15.3595   69.0065 C   0  0  0  0  0  0
  -11.2377   14.0925   68.2967 C   0  0  0  0  0  0
  -11.1144   13.9254   66.9089 C   0  0  0  0  0  0
  -11.5164   12.7464   66.2813 C   0  0  0  0  0  0
  -12.0116   11.6888   67.0353 C   0  0  0  0  0  0
  -12.1673   11.8258   68.4141 C   0  0  0  0  0  0
  -12.6113   10.6909   69.1289 N   0  0  0  0  0  0
  -12.8188   10.6662   70.4955 C   0  0  0  0  0  0
  -13.4749   11.4770   71.1322 O   0  0  0  0  0  0
  -12.1650    9.5729   71.0444 N   0  0  0  0  0  0
  -10.7647    9.4548   71.1269 C   0  0  0  0  0  0
  -10.2162    8.9186   72.2936 C   0  0  0  0  0  0
   -8.8285    8.8163   72.4443 C   0  0  0  0  0  0
   -8.2119    8.1611   73.6546 C   0  0  0  0  0  0
   -8.5848    6.6846   73.8664 C   0  0  0  0  0  0
   -8.5267    5.8673   72.6580 N   0  0  0  0  0  0
   -7.3360    5.3199   72.2174 C   0  0  0  0  0  0
   -6.2716    5.5217   72.8018 O   0  0  0  0  0  0
   -7.4182    4.5449   70.8842 C   0  0  0  0  0  0
   -8.3452    3.3215   70.9519 C   0  0  0  0  0  0
   -9.8393    3.5758   70.7111 C   0  0  0  0  0  0
  -10.1949    4.6576   69.6882 C   0  0  0  0  0  0
  -10.3014    4.0782   68.3875 O   0  0  0  0  0  0
   -9.2103    5.8175   69.6045 C   0  0  0  0  0  0
   -7.7490    5.3799   69.6473 C   0  0  0  0  0  0
   -8.0428    9.2875   71.3964 C   0  0  0  0  0  0
   -8.5377    9.8222   70.2562 N   0  0  0  0  0  0
   -9.8880    9.8870   70.1401 C   0  0  0  0  0  0
  -11.7949   13.0274   69.0431 C   0  0  0  0  0  0
  -11.1383   17.7835   68.2921 C   0  0  0  0  0  0
  -10.7456   18.9306   67.5959 C   0  0  0  0  0  0
  -10.0818   21.6576   67.6559 H   0  0  0  0  0  0
   -8.6176   22.3427   67.0778 H   0  0  0  0  0  0
  -13.2706   10.1015   68.6421 H   0  0  0  0  0  0
  -12.6800    8.7147   70.9188 H   0  0  0  0  0  0
   -9.3928    5.4690   72.3177 H   0  0  0  0  0  0
  -10.6823    4.7617   67.8079 H   0  0  0  0  0  0
  1  2  1  0  0  0
  1 40  1  0  0  0
  1 41  1  0  0  0
  2  3  2  0  0  0
  2  4  2  0  0  0
  2  5  1  0  0  0
  5  6  2  0  0  0
  5 39  1  0  0  0
  6  7  1  0  0  0
  7  8  2  0  0  0
  8  9  1  0  0  0
  8 38  1  0  0  0
  9 10  1  0  0  0
 10 11  2  0  0  0
 10 37  1  0  0  0
 11 12  1  0  0  0
 12 13  2  0  0  0
 13 14  1  0  0  0
 14 15  1  0  0  0
 14 37  2  0  0  0
 15 16  1  0  0  0
 15 42  1  0  0  0
 16 17  2  0  0  0
 16 18  1  0  0  0
 18 19  1  0  0  0
 18 43  1  0  0  0
 19 20  2  0  0  0
 19 36  1  0  0  0
 20 21  1  0  0  0
 21 22  1  0  0  0
 21 34  2  0  0  0
 22 23  1  0  0  0
 23 24  1  0  0  0
 24 25  1  0  0  0
 24 44  1  0  0  0
 25 26  2  0  0  0
 25 27  1  0  0  0
 27 28  1  0  0  0
 27 33  1  0  0  0
 28 29  1  0  0  0
 29 30  1  0  0  0
 30 31  1  0  0  0
 30 32  1  0  0  0
 31 45  1  0  0  0
 32 33  1  0  0  0
 34 35  1  0  0  0
 35 36  2  0  0  0
 38 39  2  0  0  0
M  END
>  <AUTHOR>
    GENERATED BY OPEN BABEL 2.3.2

>  <CHROM.1>
51.58896614,-134.76259092,-63.96964226,14.15716704,-179.76652173,50.36468050
69.28278298,139.35397242,60.43706443,44.93767692,83.52719494,-62.24173213
169.98154006,-9.85748810,11.65334458,69.31211503,-1.63529272,0.33861443,2.82799345

>  <COMPND>
    UNNAMED

>  <MASTER>
        0    0    0    0    0    0    0    0   72    0   72    0

>  <Name>
ligands/mol2.pdb

>  <RI>
1.80855e+07

>  <Rbt.Current_Directory>
/home/rochoa/Projects/OCONDOR

>  <Rbt.Executable>
rbdock ($Id: //depot/dev/client3/rdock/2013.1/src/exe/rbdock.cxx#4 $)

>  <Rbt.Library>
libRbt.so (2013.1, Build901 2013/11/27)

>  <Rbt.Parameter_File>
dock.prm

>  <Rbt.Receptor>
rdock.prm

>  <SCORE>
-15.6283

>  <SCORE.INTER>
-10.8976

>  <SCORE.INTER.CONST>
1

>  <SCORE.INTER.POLAR>
-1.48761

>  <SCORE.INTER.REPUL>
0

>  <SCORE.INTER.ROT>
12

>  <SCORE.INTER.VDW>
-23.2398

>  <SCORE.INTER.norm>
-0.279427

>  <SCORE.INTRA>
-4.73063

>  <SCORE.INTRA.DIHEDRAL>
-6.06007

>  <SCORE.INTRA.DIHEDRAL.0>
15.348

>  <SCORE.INTRA.POLAR>
0

>  <SCORE.INTRA.POLAR.0>
0

>  <SCORE.INTRA.REPUL>
0

>  <SCORE.INTRA.REPUL.0>
0

>  <SCORE.INTRA.VDW>
-1.7006

>  <SCORE.INTRA.VDW.0>
-3.74855

>  <SCORE.INTRA.norm>
-0.121298

>  <SCORE.RESTR>
0

>  <SCORE.RESTR.CAVITY>
0

>  <SCORE.RESTR.norm>
0

>  <SCORE.SYSTEM>
0

>  <SCORE.SYSTEM.CONST>
0

>  <SCORE.SYSTEM.DIHEDRAL>
0

>  <SCORE.SYSTEM.norm>
0

>  <SCORE.heavy>
39

>  <SCORE.norm>
-0.400725

$$$$
ligands/mol2.pdb
  rDOCK(R)          3D
libRbt.so/2013.1/901 2013/11/27
 45 48  0  0  0  0  0  0  0  0999 V2000
   -5.8846    8.5147   70.1417 N   0  0  0  0  0  0
   -6.5733    9.3184   71.4601 S   0  0  0  0  0  0
   -5.6541    9.2760   72.5654 O   0  0  0  0  0  0
   -7.0667   10.5820   70.9383 O   0  0  0  0  0  0
   -7.9751    8.3081   71.8734 C   0  0  0  0  0  0
   -8.7674    8.5944   72.9900 C   0  0  0  0  0  0
   -9.9501    7.8746   73.2005 C   0  0  0  0  0  0
  -10.3564    6.8778   72.2970 C   0  0  0  0  0  0
  -11.7299    6.2235   72.4394 C   0  0  0  0  0  0
  -12.9304    7.0164   71.9226 C   0  0  0  0  0  0
  -14.2439    6.7213   72.3190 C   0  0  0  0  0  0
  -15.3249    7.4805   71.8713 C   0  0  0  0  0  0
  -15.1115    8.5813   71.0497 C   0  0  0  0  0  0
  -13.8224    8.8928   70.6191 C   0  0  0  0  0  0
  -13.6671   10.0626   69.8422 N   0  0  0  0  0  0
  -12.5253   10.8422   69.8322 C   0  0  0  0  0  0
  -11.7325   10.9581   70.7548 O   0  0  0  0  0  0
  -12.4106   11.4811   68.6064 N   0  0  0  0  0  0
  -12.3161   12.8773   68.4538 C   0  0  0  0  0  0
  -11.9733   13.3812   67.1976 C   0  0  0  0  0  0
  -11.8261   14.7591   67.0009 C   0  0  0  0  0  0
  -11.5438   15.3362   65.6366 C   0  0  0  0  0  0
  -10.1597   15.0052   65.0545 C   0  0  0  0  0  0
   -9.8592   13.5782   64.9842 N   0  0  0  0  0  0
   -9.0665   12.9631   65.9354 C   0  0  0  0  0  0
   -8.5547   13.5924   66.8613 O   0  0  0  0  0  0
   -8.7743   11.4675   65.6855 C   0  0  0  0  0  0
   -7.3575   11.0491   66.1079 C   0  0  0  0  0  0
   -7.1612   10.6759   67.5834 C   0  0  0  0  0  0
   -8.3274    9.9623   68.2717 C   0  0  0  0  0  0
   -8.1904    8.5496   68.1164 O   0  0  0  0  0  0
   -9.7122   10.3558   67.7721 C   0  0  0  0  0  0
   -9.7978   10.4845   66.2540 C   0  0  0  0  0  0
  -12.0169   15.5793   68.1092 C   0  0  0  0  0  0
  -12.3393   15.1271   69.3431 N   0  0  0  0  0  0
  -12.4913   13.7867   69.4889 C   0  0  0  0  0  0
  -12.7356    8.1064   71.0418 C   0  0  0  0  0  0
   -9.5109    6.5644   71.2193 C   0  0  0  0  0  0
   -8.3273    7.2774   71.0060 C   0  0  0  0  0  0
   -5.0114    8.9196   69.8026 H   0  0  0  0  0  0
   -6.5832    8.3592   69.3992 H   0  0  0  0  0  0
  -14.1133   10.0452   68.9368 H   0  0  0  0  0  0
  -12.8803   10.9807   67.8671 H   0  0  0  0  0  0
  -10.4622   12.9982   64.4144 H   0  0  0  0  0  0
   -8.2638    8.3653   67.1630 H   0  0  0  0  0  0
  1  2  1  0  0  0
  1 40  1  0  0  0
  1 41  1  0  0  0
  2  3  2  0  0  0
  2  4  2  0  0  0
  2  5  1  0  0  0
  5  6  2  0  0  0
  5 39  1  0  0  0
  6  7  1  0  0  0
  7  8  2  0  0  0
  8  9  1  0  0  0
  8 38  1  0  0  0
  9 10  1  0  0  0
 10 11  2  0  0  0
 10 37  1  0  0  0
 11 12  1  0  0  0
 12 13  2  0  0  0
 13 14  1  0  0  0
 14 15  1  0  0  0
 14 37  2  0  0  0
 15 16  1  0  0  0
 15 42  1  0  0  0
 16 17  2  0  0  0
 16 18  1  0  0  0
 18 19  1  0  0  0
 18 43  1  0  0  0
 19 20  2  0  0  0
 19 36  1  0  0  0
 20 21  1  0  0  0
 21 22  1  0  0  0
 21 34  2  0  0  0
 22 23  1  0  0  0
 23 24  1  0  0  0
 24 25  1  0  0  0
 24 44  1  0  0  0
 25 26  2  0  0  0
 25 27  1  0  0  0
 27 28  1  0  0  0
 27 33  1  0  0  0
 28 29  1  0  0  0
 29 30  1  0  0  0
 30 31  1  0  0  0
 30 32  1  0  0  0
 31 45  1  0  0  0
 32 33  1  0  0  0
 34 35  1  0  0  0
 35 36  2  0  0  0
 38 39  2  0  0  0
M  END
>  <AUTHOR>
    GENERATED BY OPEN BABEL 2.3.2

>  <CHROM.1>
-61.02414595,175.59499902,78.66996124,-161.67730792,149.66505416,-27.98680466
123.25556328,169.06674054,-67.99028852,55.19934340,-100.09454786,143.80700772
-64.23118913,-10.23161401,10.44637812,69.40967027,-1.54494311,0.12173264
-0.72370194

>  <COMPND>
    UNNAMED

>  <MASTER>
        0    0    0    0    0    0    0    0   72    0   72    0

>  <Name>
ligands/mol2.pdb

>  <RI>
1.80855e+07

>  <Rbt.Current_Directory>
/home/rochoa/Projects/OCONDOR

>  <Rbt.Executable>
rbdock ($Id: //depot/dev/client3/rdock/2013.1/src/exe/rbdock.cxx#4 $)

>  <Rbt.Library>
libRbt.so (2013.1, Build901 2013/11/27)

>  <Rbt.Parameter_File>
dock.prm

>  <Rbt.Receptor>
rdock.prm

>  <SCORE>
-21.1071

>  <SCORE.INTER>
-10.6793

>  <SCORE.INTER.CONST>
1

>  <SCORE.INTER.POLAR>
-1.70035

>  <SCORE.INTER.REPUL>
0

>  <SCORE.INTER.ROT>
12

>  <SCORE.INTER.VDW>
-22.2981

>  <SCORE.INTER.norm>
-0.273829

>  <SCORE.INTRA>
-10.4278

>  <SCORE.INTRA.DIHEDRAL>
-6.76624

>  <SCORE.INTRA.DIHEDRAL.0>
15.348

>  <SCORE.INTRA.POLAR>
-1

>  <SCORE.INTRA.POLAR.0>
0

>  <SCORE.INTRA.REPUL>
0

>  <SCORE.INTRA.REPUL.0>
0

>  <SCORE.INTRA.VDW>
-3.64464

>  <SCORE.INTRA.VDW.0>
-3.74855

>  <SCORE.INTRA.norm>
-0.267378

>  <SCORE.RESTR>
0

>  <SCORE.RESTR.CAVITY>
0

>  <SCORE.RESTR.norm>
0

>  <SCORE.SYSTEM>
0

>  <SCORE.SYSTEM.CONST>
0

>  <SCORE.SYSTEM.DIHEDRAL>
0

>  <SCORE.SYSTEM.norm>
0

>  <SCORE.heavy>
39

>  <SCORE.norm>
-0.541207

$$$$
ligands/mol2.pdb
  rDOCK(R)          3D
libRbt.so/2013.1/901 2013/11/27
 45 48  0  0  0  0  0  0  0  0999 V2000
   -9.1234   18.3137   67.5300 N   0  0  0  0  0  0
   -9.1119   18.3287   65.8395 S   0  0  0  0  0  0
  -10.0104   19.3513   65.3751 O   0  0  0  0  0  0
   -7.7105   18.3250   65.4542 O   0  0  0  0  0  0
   -9.8061   16.7512   65.4076 C   0  0  0  0  0  0
   -9.1469   15.5600   65.7285 C   0  0  0  0  0  0
   -9.7904   14.3350   65.5130 C   0  0  0  0  0  0
  -11.0941   14.2890   64.9905 C   0  0  0  0  0  0
  -11.8506   12.9630   64.9245 C   0  0  0  0  0  0
  -11.5675   11.9495   66.0333 C   0  0  0  0  0  0
  -10.9537   10.7145   65.7740 C   0  0  0  0  0  0
  -10.6640    9.8179   66.8025 C   0  0  0  0  0  0
  -10.9431   10.1560   68.1216 C   0  0  0  0  0  0
  -11.5710   11.3657   68.4155 C   0  0  0  0  0  0
  -11.7640   11.6773   69.7799 N   0  0  0  0  0  0
  -12.8242   11.2176   70.5390 C   0  0  0  0  0  0
  -13.6559   11.9158   71.0994 O   0  0  0  0  0  0
  -12.8047    9.8311   70.5716 N   0  0  0  0  0  0
  -12.0544    9.0771   71.4936 C   0  0  0  0  0  0
  -10.6619    9.1609   71.4351 C   0  0  0  0  0  0
   -9.8675    8.4013   72.3016 C   0  0  0  0  0  0
   -8.3659    8.5383   72.3202 C   0  0  0  0  0  0
   -7.6022    7.5431   71.4310 C   0  0  0  0  0  0
   -7.9414    6.1421   71.6628 N   0  0  0  0  0  0
   -7.4328    5.4493   72.7457 C   0  0  0  0  0  0
   -6.6502    5.9691   73.5412 O   0  0  0  0  0  0
   -7.8188    3.9557   72.8154 C   0  0  0  0  0  0
   -9.3096    3.7294   73.1103 C   0  0  0  0  0  0
  -10.2609    3.7538   71.9064 C   0  0  0  0  0  0
   -9.7207    3.1817   70.5933 C   0  0  0  0  0  0
  -10.0057    1.7846   70.5202 O   0  0  0  0  0  0
   -8.2240    3.3660   70.3746 C   0  0  0  0  0  0
   -7.3889    3.1000   71.6238 C   0  0  0  0  0  0
  -10.5295    7.5609   73.1921 C   0  0  0  0  0  0
  -11.8754    7.4455   73.2709 N   0  0  0  0  0  0
  -12.6110    8.2120   72.4269 C   0  0  0  0  0  0
  -11.8953   12.2551   67.3753 C   0  0  0  0  0  0
  -11.7094   15.4955   64.6155 C   0  0  0  0  0  0
  -11.0705   16.7213   64.8253 C   0  0  0  0  0  0
   -8.8952   19.2071   67.9672 H   0  0  0  0  0  0
   -8.5716   17.5227   67.8951 H   0  0  0  0  0  0
  -10.9216   11.7606   70.3300 H   0  0  0  0  0  0
  -12.9304    9.4237   69.6573 H   0  0  0  0  0  0
   -8.7651    5.7754   71.2026 H   0  0  0  0  0  0
   -9.6835    1.4791   69.6535 H   0  0  0  0  0  0
  1  2  1  0  0  0
  1 40  1  0  0  0
  1 41  1  0  0  0
  2  3  2  0  0  0
  2  4  2  0  0  0
  2  5  1  0  0  0
  5  6  2  0  0  0
  5 39  1  0  0  0
  6  7  1  0  0  0
  7  8  2  0  0  0
  8  9  1  0  0  0
  8 38  1  0  0  0
  9 10  1  0  0  0
 10 11  2  0  0  0
 10 37  1  0  0  0
 11 12  1  0  0  0
 12 13  2  0  0  0
 13 14  1  0  0  0
 14 15  1  0  0  0
 14 37  2  0  0  0
 15 16  1  0  0  0
 15 42  1  0  0  0
 16 17  2  0  0  0
 16 18  1  0  0  0
 18 19  1  0  0  0
 18 43  1  0  0  0
 19 20  2  0  0  0
 19 36  1  0  0  0
 20 21  1  0  0  0
 21 22  1  0  0  0
 21 34  2  0  0  0
 22 23  1  0  0  0
 23 24  1  0  0  0
 24 25  1  0  0  0
 24 44  1  0  0  0
 25 26  2  0  0  0
 25 27  1  0  0  0
 27 28  1  0  0  0
 27 33  1  0  0  0
 28 29  1  0  0  0
 29 30  1  0  0  0
 30 31  1  0  0  0
 30 32  1  0  0  0
 31 45  1  0  0  0
 32 33  1  0  0  0
 34 35  1  0  0  0
 35 36  2  0  0  0
 38 39  2  0  0  0
M  END
>  <AUTHOR>
    GENERATED BY OPEN BABEL 2.3.2

>  <CHROM.1>
-55.96094134,-64.86327969,32.79260326,-114.64273209,-83.45813948,-119.81971763
85.76393582,-64.88344839,-93.77555970,-53.08731332,-78.05206099,-68.73112102
177.26345767,-10.11478748,10.45966730,69.18586782,-1.63681368,-0.11246220
2.64281719

>  <COMPND>
    UNNAMED

>  <MASTER>
        0    0    0    0    0    0    0    0   72    0   72    0

>  <Name>
ligands/mol2.pdb

>  <RI>
1.80855e+07

>  <Rbt.Current_Directory>
/home/rochoa/Projects/OCONDOR

>  <Rbt.Executable>
rbdock ($Id: //depot/dev/client3/rdock/2013.1/src/exe/rbdock.cxx#4 $)

>  <Rbt.Library>
libRbt.so (2013.1, Build901 2013/11/27)

>  <Rbt.Parameter_File>
dock.prm

>  <Rbt.Receptor>
rdock.prm

>  <SCORE>
-16.8214

>  <SCORE.INTER>
-10.2668

>  <SCORE.INTER.CONST>
1

>  <SCORE.INTER.POLAR>
-0.886088

>  <SCORE.INTER.REPUL>
0.07428

>  <SCORE.INTER.ROT>
12

>  <SCORE.INTER.VDW>
-25.0255

>  <SCORE.INTER.norm>
-0.26325

>  <SCORE.INTRA>
-6.55464

>  <SCORE.INTRA.DIHEDRAL>
-8.53501

>  <SCORE.INTRA.DIHEDRAL.0>
15.348

>  <SCORE.INTRA.POLAR>
0

>  <SCORE.INTRA.POLAR.0>
0

>  <SCORE.INTRA.REPUL>
0

>  <SCORE.INTRA.REPUL.0>
0

>  <SCORE.INTRA.VDW>
-2.28714

>  <SCORE.INTRA.VDW.0>
-3.74855

>  <SCORE.INTRA.norm>
-0.168068

>  <SCORE.RESTR>
0

>  <SCORE.RESTR.CAVITY>
0

>  <SCORE.RESTR.norm>
0

>  <SCORE.SYSTEM>
0

>  <SCORE.SYSTEM.CONST>
0

>  <SCORE.SYSTEM.DIHEDRAL>
0

>  <SCORE.SYSTEM.norm>
0

>  <SCORE.heavy>
39

>  <SCORE.norm>
-0.431318

$$$$
ligands/mol2.pdb
  rDOCK(R)          3D
libRbt.so/2013.1/901 2013/11/27
 45 48  0  0  0  0  0  0  0  0999 V2000
  -10.9906   20.0490   65.2602 N   0  0  0  0  0  0
   -9.5290   19.9034   66.0973 S   0  0  0  0  0  0
   -8.4414   20.0872   65.1743 O   0  0  0  0  0  0
   -9.6651   20.7403   67.2778 O   0  0  0  0  0  0
   -9.5213   18.2063   66.6231 C   0  0  0  0  0  0
   -8.8885   17.2176   65.8626 C   0  0  0  0  0  0
   -8.7676   15.9213   66.3785 C   0  0  0  0  0  0
   -9.2627   15.6057   67.6553 C   0  0  0  0  0  0
   -8.9709   14.2413   68.2784 C   0  0  0  0  0  0
   -9.9617   13.1170   67.9763 C   0  0  0  0  0  0
  -11.3324   13.2389   68.2512 C   0  0  0  0  0  0
  -12.2300   12.2204   67.9312 C   0  0  0  0  0  0
  -11.7820   11.0724   67.2881 C   0  0  0  0  0  0
  -10.4243   10.9075   67.0172 C   0  0  0  0  0  0
  -10.0454    9.7499   66.3015 N   0  0  0  0  0  0
   -9.9458    8.4893   66.8604 C   0  0  0  0  0  0
  -10.2555    7.4406   66.3148 O   0  0  0  0  0  0
   -9.4367    8.5909   68.1466 N   0  0  0  0  0  0
  -10.2240    8.8441   69.2857 C   0  0  0  0  0  0
  -11.3992    8.1086   69.4512 C   0  0  0  0  0  0
  -12.2395    8.3486   70.5446 C   0  0  0  0  0  0
  -13.4675    7.5102   70.7956 C   0  0  0  0  0  0
  -13.5461    6.8557   72.1847 C   0  0  0  0  0  0
  -12.3633    6.0852   72.5575 N   0  0  0  0  0  0
  -11.3960    6.6128   73.3927 C   0  0  0  0  0  0
  -11.4711    7.7603   73.8317 O   0  0  0  0  0  0
  -10.1672    5.7092   73.6342 C   0  0  0  0  0  0
  -10.5043    4.4224   74.4030 C   0  0  0  0  0  0
  -11.0117    3.2367   73.5715 C   0  0  0  0  0  0
  -10.4084    3.0701   72.1746 C   0  0  0  0  0  0
   -9.2432    2.2479   72.2451 O   0  0  0  0  0  0
  -10.0229    4.3691   71.4773 C   0  0  0  0  0  0
   -9.3341    5.3728   72.3975 C   0  0  0  0  0  0
  -11.8557    9.3539   71.4275 C   0  0  0  0  0  0
  -10.7306   10.0938   71.2943 N   0  0  0  0  0  0
   -9.9329    9.8184   70.2318 C   0  0  0  0  0  0
   -9.5135   11.9191   67.3714 C   0  0  0  0  0  0
   -9.9516   16.5990   68.3719 C   0  0  0  0  0  0
  -10.0782   17.8940   67.8605 C   0  0  0  0  0  0
  -11.8159   20.1404   65.8534 H   0  0  0  0  0  0
  -11.0781   19.3148   64.5414 H   0  0  0  0  0  0
  -10.3625    9.7079   65.3439 H   0  0  0  0  0  0
   -8.4982    8.9605   68.1600 H   0  0  0  0  0  0
  -12.4010    5.0804   72.4416 H   0  0  0  0  0  0
   -8.9263    2.1340   71.3314 H   0  0  0  0  0  0
  1  2  1  0  0  0
  1 40  1  0  0  0
  1 41  1  0  0  0
  2  3  2  0  0  0
  2  4  2  0  0  0
  2  5  1  0  0  0
  5  6  2  0  0  0
  5 39  1  0  0  0
  6  7  1  0  0  0
  7  8  2  0  0  0
  8  9  1  0  0  0
  8 38  1  0  0  0
  9 10  1  0  0  0
 10 11  2  0  0  0
 10 37  1  0  0  0
 11 12  1  0  0  0
 12 13  2  0  0  0
 13 14  1  0  0  0
 14 15  1  0  0  0
 14 37  2  0  0  0
 15 16  1  0  0  0
 15 42  1  0  0  0
 16 17  2  0  0  0
 16 18  1  0  0  0
 18 19  1  0  0  0
 18 43  1  0  0  0
 19 20  2  0  0  0
 19 36  1  0  0  0
 20 21  1  0  0  0
 21 22  1  0  0  0
 21 34  2  0  0  0
 22 23  1  0  0  0
 23 24  1  0  0  0
 24 25  1  0  0  0
 24 44  1  0  0  0
 25 26  2  0  0  0
 25 27  1  0  0  0
 27 28  1  0  0  0
 27 33  1  0  0  0
 28 29  1  0  0  0
 29 30  1  0  0  0
 30 31  1  0  0  0
 30 32  1  0  0  0
 31 45  1  0  0  0
 32 33  1  0  0  0
 34 35  1  0  0  0
 35 36  2  0  0  0
 38 39  2  0  0  0
M  END
>  <AUTHOR>
    GENERATED BY OPEN BABEL 2.3.2

>  <CHROM.1>
-167.09800526,94.32067075,-88.96779351,-55.87564415,-77.69091666,142.57941736
85.30973528,46.75866553,124.77277303,-52.44706692,99.80823343,-65.89722533
177.05529730,-10.43001499,11.07444359,69.21429245,1.23621252,1.30475848,-0.09002878

>  <COMPND>
    UNNAMED

>  <MASTER>
        0    0    0    0    0    0    0    0   72    0   72    0

>  <Name>
ligands/mol2.pdb

>  <RI>
1.80855e+07

>  <Rbt.Current_Directory>
/home/rochoa/Projects/OCONDOR

>  <Rbt.Executable>
rbdock ($Id: //depot/dev/client3/rdock/2013.1/src/exe/rbdock.cxx#4 $)

>  <Rbt.Library>
libRbt.so (2013.1, Build901 2013/11/27)

>  <Rbt.Parameter_File>
dock.prm

>  <Rbt.Receptor>
rdock.prm

>  <SCORE>
-13.437

>  <SCORE.INTER>
-6.67241

>  <SCORE.INTER.CONST>
1

>  <SCORE.INTER.POLAR>
0

>  <SCORE.INTER.REPUL>
0

>  <SCORE.INTER.ROT>
12

>  <SCORE.INTER.VDW>
-24.0724

>  <SCORE.INTER.norm>
-0.171087

>  <SCORE.INTRA>
-6.7646

>  <SCORE.INTRA.DIHEDRAL>
-6.89437

>  <SCORE.INTRA.DIHEDRAL.0>
15.348

>  <SCORE.INTRA.POLAR>
0

>  <SCORE.INTRA.POLAR.0>
0

>  <SCORE.INTRA.REPUL>
0

>  <SCORE.INTRA.REPUL.0>
0

>  <SCORE.INTRA.VDW>
-3.31741

>  <SCORE.INTRA.VDW.0>
-3.74855

>  <SCORE.INTRA.norm>
-0.173451

>  <SCORE.RESTR>
0

>  <SCORE.RESTR.CAVITY>
0

>  <SCORE.RESTR.norm>
0

>  <SCORE.SYSTEM>
0

>  <SCORE.SYSTEM.CONST>
0

>  <SCORE.SYSTEM.DIHEDRAL>
0

>  <SCORE.SYSTEM.norm>
0

>  <SCORE.heavy>
39

>  <SCORE.norm>
-0.344539

$$$$
ligands/mol2.pdb
  rDOCK(R)          3D
libRbt.so/2013.1/901 2013/11/27
 45 48  0  0  0  0  0  0  0  0999 V2000
   -9.0624    7.9696   64.9910 N   0  0  0  0  0  0
  -10.1066    8.9099   65.9311 S   0  0  0  0  0  0
  -10.5285   10.0501   65.1626 O   0  0  0  0  0  0
  -11.0728    7.9823   66.4956 O   0  0  0  0  0  0
   -9.0660    9.4911   67.2486 C   0  0  0  0  0  0
   -9.5090   10.4756   68.1380 C   0  0  0  0  0  0
   -8.7274   10.8005   69.2537 C   0  0  0  0  0  0
   -7.5108   10.1407   69.4970 C   0  0  0  0  0  0
   -6.7553   10.3762   70.8042 C   0  0  0  0  0  0
   -6.7312    9.2222   71.8064 C   0  0  0  0  0  0
   -5.6233    8.9761   72.6318 C   0  0  0  0  0  0
   -5.6327    7.9447   73.5708 C   0  0  0  0  0  0
   -6.7695    7.1620   73.7356 C   0  0  0  0  0  0
   -7.8819    7.3641   72.9196 C   0  0  0  0  0  0
   -9.0272    6.5805   73.1848 N   0  0  0  0  0  0
  -10.1251    6.5021   72.3482 C   0  0  0  0  0  0
  -10.1065    6.1519   71.1777 O   0  0  0  0  0  0
  -11.2645    6.8840   73.0410 N   0  0  0  0  0  0
  -12.3559    7.5500   72.4523 C   0  0  0  0  0  0
  -12.3353    8.9457   72.4172 C   0  0  0  0  0  0
  -13.4130    9.6589   71.8799 C   0  0  0  0  0  0
  -13.3792   11.1607   71.7488 C   0  0  0  0  0  0
  -12.5127   11.7027   70.6000 C   0  0  0  0  0  0
  -12.1743   13.1183   70.7143 N   0  0  0  0  0  0
  -12.1117   13.9343   69.6000 C   0  0  0  0  0  0
  -12.3056   13.5007   68.4644 O   0  0  0  0  0  0
  -11.6662   15.3882   69.8697 C   0  0  0  0  0  0
  -10.2834   15.4841   70.5326 C   0  0  0  0  0  0
   -9.0678   15.4549   69.5965 C   0  0  0  0  0  0
   -9.2322   16.1389   68.2370 C   0  0  0  0  0  0
   -8.8550   17.5123   68.3369 O   0  0  0  0  0  0
  -10.6370   16.0810   67.6494 C   0  0  0  0  0  0
  -11.7370   16.3393   68.6750 C   0  0  0  0  0  0
  -14.4920    8.9148   71.4110 C   0  0  0  0  0  0
  -14.5522    7.5633   71.4377 N   0  0  0  0  0  0
  -13.4800    6.9077   71.9491 C   0  0  0  0  0  0
   -7.8602    8.3813   71.9484 C   0  0  0  0  0  0
   -7.0564    9.2025   68.5545 C   0  0  0  0  0  0
   -7.8309    8.8765   67.4371 C   0  0  0  0  0  0
   -9.4276    7.7126   64.0734 H   0  0  0  0  0  0
   -8.7014    7.1685   65.5308 H   0  0  0  0  0  0
   -8.8544    5.7038   73.6546 H   0  0  0  0  0  0
  -11.0705    7.1080   74.0052 H   0  0  0  0  0  0
  -12.2735   13.5536   71.6228 H   0  0  0  0  0  0
   -9.4149   17.9057   69.0298 H   0  0  0  0  0  0
  1  2  1  0  0  0
  1 40  1  0  0  0
  1 41  1  0  0  0
  2  3  2  0  0  0
  2  4  2  0  0  0
  2  5  1  0  0  0
  5  6  2  0  0  0
  5 39  1  0  0  0
  6  7  1  0  0  0
  7  8  2  0  0  0
  8  9  1  0  0  0
  8 38  1  0  0  0
  9 10  1  0  0  0
 10 11  2  0  0  0
 10 37  1  0  0  0
 11 12  1  0  0  0
 12 13  2  0  0  0
 13 14  1  0  0  0
 14 15  1  0  0  0
 14 37  2  0  0  0
 15 16  1  0  0  0
 15 42  1  0  0  0
 16 17  2  0  0  0
 16 18  1  0  0  0
 18 19  1  0  0  0
 18 43  1  0  0  0
 19 20  2  0  0  0
 19 36  1  0  0  0
 20 21  1  0  0  0
 21 22  1  0  0  0
 21 34  2  0  0  0
 22 23  1  0  0  0
 23 24  1  0  0  0
 24 25  1  0  0  0
 24 44  1  0  0  0
 25 26  2  0  0  0
 25 27  1  0  0  0
 27 28  1  0  0  0
 27 33  1  0  0  0
 28 29  1  0  0  0
 29 30  1  0  0  0
 30 31  1  0  0  0
 30 32  1  0  0  0
 31 45  1  0  0  0
 32 33  1  0  0  0
 34 35  1  0  0  0
 35 36  2  0  0  0
 38 39  2  0  0  0
M  END
>  <AUTHOR>
    GENERATED BY OPEN BABEL 2.3.2

>  <CHROM.1>
-52.57128192,170.11493853,109.22899678,145.96678714,-169.18535890,57.48448487
146.93060896,-88.98128673,75.55881191,-163.03786875,-142.93805184,58.12916071
-57.30003540,-10.10604430,10.38386190,69.91951791,-1.42192015,0.59709794
-0.50069016

>  <COMPND>
    UNNAMED

>  <MASTER>
        0    0    0    0    0    0    0    0   72    0   72    0

>  <Name>
ligands/mol2.pdb

>  <RI>
1.80855e+07

>  <Rbt.Current_Directory>
/home/rochoa/Projects/OCONDOR

>  <Rbt.Executable>
rbdock ($Id: //depot/dev/client3/rdock/2013.1/src/exe/rbdock.cxx#4 $)

>  <Rbt.Library>
libRbt.so (2013.1, Build901 2013/11/27)

>  <Rbt.Parameter_File>
dock.prm

>  <Rbt.Receptor>
rdock.prm

>  <SCORE>
-8.18497

>  <SCORE.INTER>
-4.59353

>  <SCORE.INTER.CONST>
1

>  <SCORE.INTER.POLAR>
-0.0616456

>  <SCORE.INTER.REPUL>
0.138906

>  <SCORE.INTER.ROT>
12

>  <SCORE.INTER.VDW>
-22.4785

>  <SCORE.INTER.norm>
-0.117783

>  <SCORE.INTRA>
-3.59143

>  <SCORE.INTRA.DIHEDRAL>
-6.18182

>  <SCORE.INTRA.DIHEDRAL.0>
15.348

>  <SCORE.INTRA.POLAR>
0

>  <SCORE.INTRA.POLAR.0>
0

>  <SCORE.INTRA.REPUL>
0

>  <SCORE.INTRA.REPUL.0>
0

>  <SCORE.INTRA.VDW>
-0.500522

>  <SCORE.INTRA.VDW.0>
-3.74855

>  <SCORE.INTRA.norm>
-0.092088

>  <SCORE.RESTR>
0

>  <SCORE.RESTR.CAVITY>
0

>  <SCORE.RESTR.norm>
0

>  <SCORE.SYSTEM>
0

>  <SCORE.SYSTEM.CONST>
0

>  <SCORE.SYSTEM.DIHEDRAL>
0

>  <SCORE.SYSTEM.norm>
0

>  <SCORE.heavy>
39

>  <SCORE.norm>
-0.209871

$$$$
