ligands/mol7.pdb
  rDOCK(R)          3D
libRbt.so/2013.1/901 2013/11/27
 46 49  0  0  0  0  0  0  0  0999 V2000
   -8.9882    6.8543   77.0317 N   0  0  0  0  0  0
   -9.6957    5.3595   76.7533 S   0  0  0  0  0  0
   -8.6278    4.4182   76.6348 O   0  0  0  0  0  0
  -10.7468    5.2270   77.7518 O   0  0  0  0  0  0
  -10.4438    5.6108   75.1758 C   0  0  0  0  0  0
  -10.8988    4.5204   74.4418 C   0  0  0  0  0  0
  -11.4602    4.7348   73.1883 C   0  0  0  0  0  0
  -11.5619    6.0314   72.6608 C   0  0  0  0  0  0
  -12.1737    6.2604   71.3032 C   0  0  0  0  0  0
  -11.2157    6.8852   70.3226 C   0  0  0  0  0  0
  -10.6321    6.1381   69.2978 C   0  0  0  0  0  0
   -9.8251    6.7720   68.3528 C   0  0  0  0  0  0
   -9.5922    8.1496   68.4315 C   0  0  0  0  0  0
  -10.1113    8.8848   69.4950 C   0  0  0  0  0  0
   -9.8338   10.2576   69.6606 N   0  0  0  0  0  0
  -10.1034   11.1760   68.6469 C   0  0  0  0  0  0
   -9.3384   12.0802   68.3130 O   0  0  0  0  0  0
  -11.5062   11.0251   68.0304 C   0  0  0  0  0  0
  -12.6318   10.6508   69.4529 S   0  0  0  0  0  0
  -11.9705   12.2133   67.1885 C   0  0  0  0  0  0
  -12.1232   12.0792   65.8013 C   0  0  0  0  0  0
  -12.4658   13.0718   64.9451 N   0  0  0  0  0  0
  -12.7055   14.2771   65.4812 C   0  0  0  0  0  0
  -12.6370   14.5267   66.8383 C   0  0  0  0  0  0
  -12.2737   13.4895   67.7209 C   0  0  0  0  0  0
  -12.2931   13.8239   69.1980 C   0  0  0  0  0  0
  -11.0686   14.6509   69.6046 C   0  0  0  0  0  0
  -11.1995   16.0378   69.1903 N   0  0  0  0  0  0
  -10.1168   16.8596   68.9750 C   0  0  0  0  0  0
   -8.9643   16.4644   69.0886 O   0  0  0  0  0  0
  -10.4690   18.3076   68.6215 C   0  0  0  0  0  0
   -9.2459   19.2363   68.7168 C   0  0  0  0  0  0
   -8.3595   19.2692   67.4721 C   0  0  0  0  0  0
   -9.1289   19.4339   66.1712 C   0  0  0  0  0  0
   -9.6175   20.7652   66.0664 O   0  0  0  0  0  0
  -10.2894   18.4528   66.0589 C   0  0  0  0  0  0
  -11.2056   18.4149   67.2800 C   0  0  0  0  0  0
  -10.9010    8.2452   70.4404 C   0  0  0  0  0  0
  -11.0967    7.1166   73.4102 C   0  0  0  0  0  0
  -10.5326    6.9124   74.6728 C   0  0  0  0  0  0
   -9.7152    7.5588   77.1585 H   0  0  0  0  0  0
   -8.3144    7.0712   76.3006 H   0  0  0  0  0  0
   -9.8903   10.6051   70.6113 H   0  0  0  0  0  0
  -13.6428   10.1794   68.6977 H   0  0  0  0  0  0
  -12.1177   16.4588   69.2454 H   0  0  0  0  0  0
  -10.0246   20.8551   65.1851 H   0  0  0  0  0  0
  1  2  1  0  0  0
  1 41  1  0  0  0
  1 42  1  0  0  0
  2  3  2  0  0  0
  2  4  2  0  0  0
  2  5  1  0  0  0
  5  6  2  0  0  0
  5 40  1  0  0  0
  6  7  1  0  0  0
  7  8  2  0  0  0
  8  9  1  0  0  0
  8 39  1  0  0  0
  9 10  1  0  0  0
 10 11  2  0  0  0
 10 38  1  0  0  0
 11 12  1  0  0  0
 12 13  2  0  0  0
 13 14  1  0  0  0
 14 15  1  0  0  0
 14 38  2  0  0  0
 15 16  1  0  0  0
 15 43  1  0  0  0
 16 17  2  0  0  0
 16 18  1  0  0  0
 18 19  1  0  0  0
 18 20  1  0  0  0
 19 44  1  0  0  0
 20 21  2  0  0  0
 20 25  1  0  0  0
 21 22  1  0  0  0
 22 23  2  0  0  0
 23 24  1  0  0  0
 24 25  2  0  0  0
 25 26  1  0  0  0
 26 27  1  0  0  0
 27 28  1  0  0  0
 28 29  1  0  0  0
 28 45  1  0  0  0
 29 30  2  0  0  0
 29 31  1  0  0  0
 31 32  1  0  0  0
 31 37  1  0  0  0
 32 33  1  0  0  0
 33 34  1  0  0  0
 34 35  1  0  0  0
 34 36  1  0  0  0
 35 46  1  0  0  0
 36 37  1  0  0  0
 39 40  2  0  0  0
M  END
>  <AUTHOR>
    GENERATED BY OPEN BABEL 2.3.2

>  <CHROM.1>
-177.92900610,166.14530178,-118.88077628,105.23290942,55.61564714,-136.68267253
39.46442044,-162.86983789,111.92650155,105.62929711,76.55036445,-155.37382634
166.68332961,174.43544841,-10.69405731,11.23710567,70.19136396,-1.54432166
-1.19188869,-0.54597313

>  <COMPND>
    UNNAMED

>  <MASTER>
        0    0    0    0    0    0    0    0   74    0   74    0

>  <Name>
ligands/mol7.pdb

>  <RI>
1.56524e+07

>  <Rbt.Current_Directory>
/home/rochoa/Projects/OCONDOR

>  <Rbt.Executable>
rbdock ($Id: //depot/dev/client3/rdock/2013.1/src/exe/rbdock.cxx#4 $)

>  <Rbt.Library>
libRbt.so (2013.1, Build901 2013/11/27)

>  <Rbt.Parameter_File>
dock.prm

>  <Rbt.Receptor>
rdock.prm

>  <SCORE>
-18.6388

>  <SCORE.INTER>
-18.629

>  <SCORE.INTER.CONST>
1

>  <SCORE.INTER.POLAR>
-1.82678

>  <SCORE.INTER.REPUL>
0.0227474

>  <SCORE.INTER.ROT>
13

>  <SCORE.INTER.VDW>
-30.9317

>  <SCORE.INTER.norm>
-0.465725

>  <SCORE.INTRA>
-0.009809

>  <SCORE.INTRA.DIHEDRAL>
-1.7463

>  <SCORE.INTRA.DIHEDRAL.0>
11.1439

>  <SCORE.INTRA.POLAR>
0

>  <SCORE.INTRA.POLAR.0>
0

>  <SCORE.INTRA.REPUL>
0

>  <SCORE.INTRA.REPUL.0>
0

>  <SCORE.INTRA.VDW>
0.863343

>  <SCORE.INTRA.VDW.0>
-6.16825

>  <SCORE.INTRA.norm>
-0.000245225

>  <SCORE.RESTR>
0

>  <SCORE.RESTR.CAVITY>
0

>  <SCORE.RESTR.norm>
0

>  <SCORE.SYSTEM>
0

>  <SCORE.SYSTEM.CONST>
0

>  <SCORE.SYSTEM.DIHEDRAL>
0

>  <SCORE.SYSTEM.norm>
0

>  <SCORE.heavy>
40

>  <SCORE.norm>
-0.46597

$$$$
ligands/mol7.pdb
  rDOCK(R)          3D
libRbt.so/2013.1/901 2013/11/27
 46 49  0  0  0  0  0  0  0  0999 V2000
   -7.3083   19.6911   67.3936 N   0  0  0  0  0  0
   -6.9576   18.5880   68.6072 S   0  0  0  0  0  0
   -5.9575   17.7116   68.0855 O   0  0  0  0  0  0
   -6.7527   19.3779   69.8128 O   0  0  0  0  0  0
   -8.4883   17.7234   68.7519 C   0  0  0  0  0  0
   -8.4926   16.3659   69.0553 C   0  0  0  0  0  0
   -9.7069   15.6944   69.1378 C   0  0  0  0  0  0
  -10.9162   16.3697   68.9106 C   0  0  0  0  0  0
  -12.2307   15.6395   69.0038 C   0  0  0  0  0  0
  -12.2691   14.3859   68.1691 C   0  0  0  0  0  0
  -12.2455   14.4388   66.7741 C   0  0  0  0  0  0
  -12.1864   13.2553   66.0379 C   0  0  0  0  0  0
  -12.1582   12.0173   66.6897 C   0  0  0  0  0  0
  -12.2573   11.9580   68.0781 C   0  0  0  0  0  0
  -12.3169   10.7314   68.7714 N   0  0  0  0  0  0
  -11.7780   10.5981   70.0503 C   0  0  0  0  0  0
  -12.1185   11.2786   71.0174 O   0  0  0  0  0  0
  -10.6297    9.5760   70.1361 C   0  0  0  0  0  0
   -9.1174   10.4858   69.5742 S   0  0  0  0  0  0
  -10.4620    8.9092   71.5011 C   0  0  0  0  0  0
   -9.1904    8.7968   72.0808 C   0  0  0  0  0  0
   -8.9081    8.1738   73.2504 N   0  0  0  0  0  0
   -9.9430    7.6461   73.9197 C   0  0  0  0  0  0
  -11.2498    7.7327   73.4795 C   0  0  0  0  0  0
  -11.5333    8.3772   72.2585 C   0  0  0  0  0  0
  -12.9957    8.4949   71.8822 C   0  0  0  0  0  0
  -13.5456    7.1720   71.3380 C   0  0  0  0  0  0
  -12.8274    6.7441   70.1490 N   0  0  0  0  0  0
  -11.6832    5.9812   70.2003 C   0  0  0  0  0  0
  -11.2100    5.5841   71.2565 O   0  0  0  0  0  0
  -11.0341    5.7038   68.8411 C   0  0  0  0  0  0
  -10.3892    6.9666   68.2436 C   0  0  0  0  0  0
   -8.9711    7.2619   68.7315 C   0  0  0  0  0  0
   -8.0464    6.0553   68.7061 C   0  0  0  0  0  0
   -7.7015    5.7415   67.3627 O   0  0  0  0  0  0
   -8.6711    4.8354   69.3721 C   0  0  0  0  0  0
  -10.0805    4.5029   68.8875 C   0  0  0  0  0  0
  -12.3312   13.1387   68.8040 C   0  0  0  0  0  0
  -10.8943   17.7337   68.6034 C   0  0  0  0  0  0
   -9.6788   18.4191   68.5202 C   0  0  0  0  0  0
   -8.0328   20.3339   67.7142 H   0  0  0  0  0  0
   -7.5281   19.2078   66.5255 H   0  0  0  0  0  0
  -13.1127   10.1423   68.5533 H   0  0  0  0  0  0
   -9.2881   11.5404   70.3947 H   0  0  0  0  0  0
  -13.0745    7.1797   69.2700 H   0  0  0  0  0  0
   -8.5324    5.5595   66.8861 H   0  0  0  0  0  0
  1  2  1  0  0  0
  1 41  1  0  0  0
  1 42  1  0  0  0
  2  3  2  0  0  0
  2  4  2  0  0  0
  2  5  1  0  0  0
  5  6  2  0  0  0
  5 40  1  0  0  0
  6  7  1  0  0  0
  7  8  2  0  0  0
  8  9  1  0  0  0
  8 39  1  0  0  0
  9 10  1  0  0  0
 10 11  2  0  0  0
 10 38  1  0  0  0
 11 12  1  0  0  0
 12 13  2  0  0  0
 13 14  1  0  0  0
 14 15  1  0  0  0
 14 38  2  0  0  0
 15 16  1  0  0  0
 15 43  1  0  0  0
 16 17  2  0  0  0
 16 18  1  0  0  0
 18 19  1  0  0  0
 18 20  1  0  0  0
 19 44  1  0  0  0
 20 21  2  0  0  0
 20 25  1  0  0  0
 21 22  1  0  0  0
 22 23  2  0  0  0
 23 24  1  0  0  0
 24 25  2  0  0  0
 25 26  1  0  0  0
 26 27  1  0  0  0
 27 28  1  0  0  0
 28 29  1  0  0  0
 28 45  1  0  0  0
 29 30  2  0  0  0
 29 31  1  0  0  0
 31 32  1  0  0  0
 31 37  1  0  0  0
 32 33  1  0  0  0
 33 34  1  0  0  0
 34 35  1  0  0  0
 34 36  1  0  0  0
 35 46  1  0  0  0
 36 37  1  0  0  0
 39 40  2  0  0  0
M  END
>  <AUTHOR>
    GENERATED BY OPEN BABEL 2.3.2

>  <CHROM.1>
179.09561958,145.43209420,-52.01470240,-67.61557294,148.15626501,58.17757325
82.39906095,50.83586337,-133.61921030,104.91742033,-60.05184792,87.59700684
70.74109950,-59.04605338,-10.17730964,11.44224948,69.49346440,-1.39710047
0.00926480,2.96860776

>  <COMPND>
    UNNAMED

>  <MASTER>
        0    0    0    0    0    0    0    0   74    0   74    0

>  <Name>
ligands/mol7.pdb

>  <RI>
1.56524e+07

>  <Rbt.Current_Directory>
/home/rochoa/Projects/OCONDOR

>  <Rbt.Executable>
rbdock ($Id: //depot/dev/client3/rdock/2013.1/src/exe/rbdock.cxx#4 $)

>  <Rbt.Library>
libRbt.so (2013.1, Build901 2013/11/27)

>  <Rbt.Parameter_File>
dock.prm

>  <Rbt.Receptor>
rdock.prm

>  <SCORE>
-18.984

>  <SCORE.INTER>
-16.3318

>  <SCORE.INTER.CONST>
1

>  <SCORE.INTER.POLAR>
-1.86204

>  <SCORE.INTER.REPUL>
0.0385381

>  <SCORE.INTER.ROT>
13

>  <SCORE.INTER.VDW>
-28.5935

>  <SCORE.INTER.norm>
-0.408294

>  <SCORE.INTRA>
-2.66283

>  <SCORE.INTRA.DIHEDRAL>
-2.82754

>  <SCORE.INTRA.DIHEDRAL.0>
11.1439

>  <SCORE.INTRA.POLAR>
0

>  <SCORE.INTRA.POLAR.0>
0

>  <SCORE.INTRA.REPUL>
0

>  <SCORE.INTRA.REPUL.0>
0

>  <SCORE.INTRA.VDW>
-1.24906

>  <SCORE.INTRA.VDW.0>
-6.16825

>  <SCORE.INTRA.norm>
-0.0665707

>  <SCORE.RESTR>
0.010561

>  <SCORE.RESTR.CAVITY>
0.010561

>  <SCORE.RESTR.norm>
0.000264026

>  <SCORE.SYSTEM>
0

>  <SCORE.SYSTEM.CONST>
0

>  <SCORE.SYSTEM.DIHEDRAL>
0

>  <SCORE.SYSTEM.norm>
0

>  <SCORE.heavy>
40

>  <SCORE.norm>
-0.474601

$$$$
ligands/mol7.pdb
  rDOCK(R)          3D
libRbt.so/2013.1/901 2013/11/27
 46 49  0  0  0  0  0  0  0  0999 V2000
   -7.7833   20.4478   64.9679 N   0  0  0  0  0  0
   -9.1956   20.3103   65.8617 S   0  0  0  0  0  0
   -8.9100   20.8345   67.1594 O   0  0  0  0  0  0
  -10.2524   20.8478   65.0170 O   0  0  0  0  0  0
   -9.3846   18.5590   65.9569 C   0  0  0  0  0  0
  -10.6496   18.0056   66.1239 C   0  0  0  0  0  0
  -10.7767   16.6250   66.2250 C   0  0  0  0  0  0
   -9.6461   15.7952   66.1686 C   0  0  0  0  0  0
   -9.7878   14.2991   66.2756 C   0  0  0  0  0  0
  -10.5370   13.6935   65.1173 C   0  0  0  0  0  0
  -11.9122   13.8783   64.9630 C   0  0  0  0  0  0
  -12.5538   13.3823   63.8279 C   0  0  0  0  0  0
  -11.8279   12.6952   62.8484 C   0  0  0  0  0  0
  -10.4704   12.4437   63.0349 C   0  0  0  0  0  0
   -9.7178   11.6840   62.1153 N   0  0  0  0  0  0
   -8.6604   10.8797   62.5381 C   0  0  0  0  0  0
   -7.4778   11.1022   62.2804 O   0  0  0  0  0  0
   -9.1072    9.6110   63.2873 C   0  0  0  0  0  0
   -9.1841    8.2806   62.0009 S   0  0  0  0  0  0
   -8.2445    9.2376   64.4925 C   0  0  0  0  0  0
   -7.0173    8.5855   64.3077 C   0  0  0  0  0  0
   -6.1982    8.1496   65.2951 N   0  0  0  0  0  0
   -6.5880    8.3912   66.5550 C   0  0  0  0  0  0
   -7.7511    9.0677   66.8687 C   0  0  0  0  0  0
   -8.6001    9.5121   65.8350 C   0  0  0  0  0  0
   -9.8166   10.3091   66.2580 C   0  0  0  0  0  0
  -10.9104    9.4039   66.8348 C   0  0  0  0  0  0
  -10.5039    8.8147   68.0997 N   0  0  0  0  0  0
  -10.8366    7.5312   68.4683 C   0  0  0  0  0  0
  -11.4742    6.7863   67.7365 O   0  0  0  0  0  0
  -10.3801    7.1271   69.8733 C   0  0  0  0  0  0
   -8.8489    7.1753   70.0163 C   0  0  0  0  0  0
   -8.2729    8.5513   70.3498 C   0  0  0  0  0  0
   -8.9966    9.2654   71.4803 C   0  0  0  0  0  0
   -8.6822    8.6449   72.7206 O   0  0  0  0  0  0
  -10.5074    9.2762   71.2822 C   0  0  0  0  0  0
  -11.1140    7.9101   70.9697 C   0  0  0  0  0  0
   -9.8411   12.9267   64.1738 C   0  0  0  0  0  0
   -8.3810   16.3677   66.0037 C   0  0  0  0  0  0
   -8.2423   17.7548   65.8985 C   0  0  0  0  0  0
   -6.9906   20.1383   65.5307 H   0  0  0  0  0  0
   -7.6904   21.3885   64.5910 H   0  0  0  0  0  0
  -10.2170   11.3756   61.2886 H   0  0  0  0  0  0
   -9.9574    7.4467   62.7228 H   0  0  0  0  0  0
  -10.1258    9.4336   68.8051 H   0  0  0  0  0  0
   -9.0244    7.7327   72.6822 H   0  0  0  0  0  0
  1  2  1  0  0  0
  1 41  1  0  0  0
  1 42  1  0  0  0
  2  3  2  0  0  0
  2  4  2  0  0  0
  2  5  1  0  0  0
  5  6  2  0  0  0
  5 40  1  0  0  0
  6  7  1  0  0  0
  7  8  2  0  0  0
  8  9  1  0  0  0
  8 39  1  0  0  0
  9 10  1  0  0  0
 10 11  2  0  0  0
 10 38  1  0  0  0
 11 12  1  0  0  0
 12 13  2  0  0  0
 13 14  1  0  0  0
 14 15  1  0  0  0
 14 38  2  0  0  0
 15 16  1  0  0  0
 15 43  1  0  0  0
 16 17  2  0  0  0
 16 18  1  0  0  0
 18 19  1  0  0  0
 18 20  1  0  0  0
 19 44  1  0  0  0
 20 21  2  0  0  0
 20 25  1  0  0  0
 21 22  1  0  0  0
 22 23  2  0  0  0
 23 24  1  0  0  0
 24 25  2  0  0  0
 25 26  1  0  0  0
 26 27  1  0  0  0
 27 28  1  0  0  0
 28 29  1  0  0  0
 28 45  1  0  0  0
 29 30  2  0  0  0
 29 31  1  0  0  0
 31 32  1  0  0  0
 31 37  1  0  0  0
 32 33  1  0  0  0
 33 34  1  0  0  0
 34 35  1  0  0  0
 34 36  1  0  0  0
 35 46  1  0  0  0
 36 37  1  0  0  0
 39 40  2  0  0  0
M  END
>  <AUTHOR>
    GENERATED BY OPEN BABEL 2.3.2

>  <CHROM.1>
44.76317849,-153.92383864,65.30961223,-71.37285542,-147.13066047,-111.66548310
94.23538850,-161.87594390,-79.18114363,106.14255727,67.56956723,-143.13153094
-61.49884085,-63.44065167,-9.44723107,12.26404450,66.13646999,1.76975954
1.50715923,-0.41328187

>  <COMPND>
    UNNAMED

>  <MASTER>
        0    0    0    0    0    0    0    0   74    0   74    0

>  <Name>
ligands/mol7.pdb

>  <RI>
1.56524e+07

>  <Rbt.Current_Directory>
/home/rochoa/Projects/OCONDOR

>  <Rbt.Executable>
rbdock ($Id: //depot/dev/client3/rdock/2013.1/src/exe/rbdock.cxx#4 $)

>  <Rbt.Library>
libRbt.so (2013.1, Build901 2013/11/27)

>  <Rbt.Parameter_File>
dock.prm

>  <Rbt.Receptor>
rdock.prm

>  <SCORE>
-16.6952

>  <SCORE.INTER>
-15.1302

>  <SCORE.INTER.CONST>
1

>  <SCORE.INTER.POLAR>
-2.13717

>  <SCORE.INTER.REPUL>
0.0361046

>  <SCORE.INTER.ROT>
13

>  <SCORE.INTER.VDW>
-26.4443

>  <SCORE.INTER.norm>
-0.378254

>  <SCORE.INTRA>
-1.56504

>  <SCORE.INTRA.DIHEDRAL>
-2.47112

>  <SCORE.INTRA.DIHEDRAL.0>
11.1439

>  <SCORE.INTRA.POLAR>
0

>  <SCORE.INTRA.POLAR.0>
0

>  <SCORE.INTRA.REPUL>
0

>  <SCORE.INTRA.REPUL.0>
0

>  <SCORE.INTRA.VDW>
-0.329485

>  <SCORE.INTRA.VDW.0>
-6.16825

>  <SCORE.INTRA.norm>
-0.0391261

>  <SCORE.RESTR>
0

>  <SCORE.RESTR.CAVITY>
0

>  <SCORE.RESTR.norm>
0

>  <SCORE.SYSTEM>
0

>  <SCORE.SYSTEM.CONST>
0

>  <SCORE.SYSTEM.DIHEDRAL>
0

>  <SCORE.SYSTEM.norm>
0

>  <SCORE.heavy>
40

>  <SCORE.norm>
-0.41738

$$$$
ligands/mol7.pdb
  rDOCK(R)          3D
libRbt.so/2013.1/901 2013/11/27
 46 49  0  0  0  0  0  0  0  0999 V2000
  -10.9351   19.5697   67.1584 N   0  0  0  0  0  0
   -9.7248   18.5763   66.5578 S   0  0  0  0  0  0
   -9.2416   19.1970   65.3654 O   0  0  0  0  0  0
   -8.8591   18.2786   67.6897 O   0  0  0  0  0  0
  -10.6337   17.1223   66.1441 C   0  0  0  0  0  0
  -10.9457   16.8533   64.8156 C   0  0  0  0  0  0
  -11.6868   15.7174   64.5107 C   0  0  0  0  0  0
  -12.1249   14.8536   65.5265 C   0  0  0  0  0  0
  -12.9254   13.6218   65.1922 C   0  0  0  0  0  0
  -12.0647   12.4393   64.8311 C   0  0  0  0  0  0
  -11.8975   12.0383   63.5043 C   0  0  0  0  0  0
  -11.0181   10.9987   63.2014 C   0  0  0  0  0  0
  -10.3095   10.3519   64.2202 C   0  0  0  0  0  0
  -10.5302   10.6988   65.5514 C   0  0  0  0  0  0
   -9.9019   10.0184   66.6150 N   0  0  0  0  0  0
  -10.6003    9.0991   67.3967 C   0  0  0  0  0  0
  -11.3688    8.2512   66.9442 O   0  0  0  0  0  0
  -10.4036    9.2965   68.9109 C   0  0  0  0  0  0
   -8.5890    9.5903   69.1378 S   0  0  0  0  0  0
  -11.2752   10.3850   69.5368 C   0  0  0  0  0  0
  -11.2980   11.6745   68.9871 C   0  0  0  0  0  0
  -11.9782   12.7342   69.4875 N   0  0  0  0  0  0
  -12.7131   12.5164   70.5875 C   0  0  0  0  0  0
  -12.8129   11.2800   71.1960 C   0  0  0  0  0  0
  -12.0969   10.1848   70.6721 C   0  0  0  0  0  0
  -12.3168    8.8489   71.3512 C   0  0  0  0  0  0
  -11.4418    8.7014   72.6006 C   0  0  0  0  0  0
  -11.6843    7.4375   73.2761 N   0  0  0  0  0  0
  -10.6758    6.6712   73.8141 C   0  0  0  0  0  0
   -9.5038    7.0218   73.7864 O   0  0  0  0  0  0
  -11.1313    5.3368   74.4119 C   0  0  0  0  0  0
  -11.6953    4.3890   73.3390 C   0  0  0  0  0  0
  -10.6493    3.5645   72.5891 C   0  0  0  0  0  0
   -9.6275    2.8946   73.4939 C   0  0  0  0  0  0
  -10.2346    1.8101   74.1849 O   0  0  0  0  0  0
   -9.0216    3.8665   74.4989 C   0  0  0  0  0  0
  -10.0449    4.6883   75.2796 C   0  0  0  0  0  0
  -11.4180   11.7238   65.8471 C   0  0  0  0  0  0
  -11.8057   15.1402   66.8574 C   0  0  0  0  0  0
  -11.0589   16.2785   67.1748 C   0  0  0  0  0  0
  -11.6057   19.7780   66.4183 H   0  0  0  0  0  0
  -10.5330   20.3907   67.6057 H   0  0  0  0  0  0
   -8.9078    9.8534   66.5040 H   0  0  0  0  0  0
   -8.6265    9.5998   70.4843 H   0  0  0  0  0  0
  -12.6022    7.0231   73.1798 H   0  0  0  0  0  0
  -10.5079    1.1570   73.5145 H   0  0  0  0  0  0
  1  2  1  0  0  0
  1 41  1  0  0  0
  1 42  1  0  0  0
  2  3  2  0  0  0
  2  4  2  0  0  0
  2  5  1  0  0  0
  5  6  2  0  0  0
  5 40  1  0  0  0
  6  7  1  0  0  0
  7  8  2  0  0  0
  8  9  1  0  0  0
  8 39  1  0  0  0
  9 10  1  0  0  0
 10 11  2  0  0  0
 10 38  1  0  0  0
 11 12  1  0  0  0
 12 13  2  0  0  0
 13 14  1  0  0  0
 14 15  1  0  0  0
 14 38  2  0  0  0
 15 16  1  0  0  0
 15 43  1  0  0  0
 16 17  2  0  0  0
 16 18  1  0  0  0
 18 19  1  0  0  0
 18 20  1  0  0  0
 19 44  1  0  0  0
 20 21  2  0  0  0
 20 25  1  0  0  0
 21 22  1  0  0  0
 22 23  2  0  0  0
 23 24  1  0  0  0
 24 25  2  0  0  0
 25 26  1  0  0  0
 26 27  1  0  0  0
 27 28  1  0  0  0
 28 29  1  0  0  0
 28 45  1  0  0  0
 29 30  2  0  0  0
 29 31  1  0  0  0
 31 32  1  0  0  0
 31 37  1  0  0  0
 32 33  1  0  0  0
 33 34  1  0  0  0
 34 35  1  0  0  0
 34 36  1  0  0  0
 35 46  1  0  0  0
 36 37  1  0  0  0
 39 40  2  0  0  0
M  END
>  <AUTHOR>
    GENERATED BY OPEN BABEL 2.3.2

>  <CHROM.1>
51.03015771,103.26638856,85.09874171,-103.09338826,-104.07655138,43.51583270
-44.08025519,-174.33314566,-52.04490639,99.55991133,178.16101184,139.21730872
65.05755745,63.38004165,-10.80442532,11.01513374,68.91588226,-1.74310187
1.48367406,2.73654283

>  <COMPND>
    UNNAMED

>  <MASTER>
        0    0    0    0    0    0    0    0   74    0   74    0

>  <Name>
ligands/mol7.pdb

>  <RI>
1.56524e+07

>  <Rbt.Current_Directory>
/home/rochoa/Projects/OCONDOR

>  <Rbt.Executable>
rbdock ($Id: //depot/dev/client3/rdock/2013.1/src/exe/rbdock.cxx#4 $)

>  <Rbt.Library>
libRbt.so (2013.1, Build901 2013/11/27)

>  <Rbt.Parameter_File>
dock.prm

>  <Rbt.Receptor>
rdock.prm

>  <SCORE>
-13.7975

>  <SCORE.INTER>
-12.6926

>  <SCORE.INTER.CONST>
1

>  <SCORE.INTER.POLAR>
-0.0723229

>  <SCORE.INTER.REPUL>
0.0913938

>  <SCORE.INTER.ROT>
13

>  <SCORE.INTER.VDW>
-31.3037

>  <SCORE.INTER.norm>
-0.317315

>  <SCORE.INTRA>
-1.10493

>  <SCORE.INTRA.DIHEDRAL>
-2.41186

>  <SCORE.INTRA.DIHEDRAL.0>
11.1439

>  <SCORE.INTRA.POLAR>
0

>  <SCORE.INTRA.POLAR.0>
0

>  <SCORE.INTRA.REPUL>
0

>  <SCORE.INTRA.REPUL.0>
0

>  <SCORE.INTRA.VDW>
0.100996

>  <SCORE.INTRA.VDW.0>
-6.16825

>  <SCORE.INTRA.norm>
-0.0276234

>  <SCORE.RESTR>
0

>  <SCORE.RESTR.CAVITY>
0

>  <SCORE.RESTR.norm>
0

>  <SCORE.SYSTEM>
0

>  <SCORE.SYSTEM.CONST>
0

>  <SCORE.SYSTEM.DIHEDRAL>
0

>  <SCORE.SYSTEM.norm>
0

>  <SCORE.heavy>
40

>  <SCORE.norm>
-0.344938

$$$$
ligands/mol7.pdb
  rDOCK(R)          3D
libRbt.so/2013.1/901 2013/11/27
 46 49  0  0  0  0  0  0  0  0999 V2000
   -8.0261    5.4734   75.4345 N   0  0  0  0  0  0
   -9.5250    4.8616   75.8722 S   0  0  0  0  0  0
   -9.4491    3.4439   75.7143 O   0  0  0  0  0  0
   -9.8528    5.4898   77.1439 O   0  0  0  0  0  0
  -10.5643    5.5439   74.6208 C   0  0  0  0  0  0
  -11.3709    4.7074   73.8564 C   0  0  0  0  0  0
  -12.1626    5.2592   72.8559 C   0  0  0  0  0  0
  -12.1465    6.6409   72.6095 C   0  0  0  0  0  0
  -13.0080    7.2360   71.5262 C   0  0  0  0  0  0
  -12.2315    7.5958   70.2864 C   0  0  0  0  0  0
  -11.8692    6.6281   69.3475 C   0  0  0  0  0  0
  -11.2341    7.0134   68.1668 C   0  0  0  0  0  0
  -10.9524    8.3622   67.9226 C   0  0  0  0  0  0
  -11.2445    9.3215   68.8897 C   0  0  0  0  0  0
  -10.9029   10.6796   68.7225 N   0  0  0  0  0  0
   -9.8621   11.0634   67.8779 C   0  0  0  0  0  0
   -9.0250   10.2878   67.4173 O   0  0  0  0  0  0
   -9.7845   12.5826   67.6401 C   0  0  0  0  0  0
   -8.1251   12.8768   66.8718 S   0  0  0  0  0  0
  -10.9394   13.1666   66.8269 C   0  0  0  0  0  0
  -12.0261   12.3592   66.4628 C   0  0  0  0  0  0
  -13.0731   12.7441   65.6937 N   0  0  0  0  0  0
  -13.0777   14.0165   65.2713 C   0  0  0  0  0  0
  -12.0908   14.9252   65.6020 C   0  0  0  0  0  0
  -11.0022   14.5142   66.3975 C   0  0  0  0  0  0
  -10.0021   15.5864   66.7768 C   0  0  0  0  0  0
   -9.1750   16.0382   65.5683 C   0  0  0  0  0  0
   -7.9800   16.7571   65.9778 N   0  0  0  0  0  0
   -7.9322   18.1281   66.0867 C   0  0  0  0  0  0
   -8.9087   18.8343   65.8749 O   0  0  0  0  0  0
   -6.5584   18.6962   66.4548 C   0  0  0  0  0  0
   -5.9401   19.5004   65.2977 C   0  0  0  0  0  0
   -6.3914   20.9580   65.2088 C   0  0  0  0  0  0
   -6.3477   21.6991   66.5356 C   0  0  0  0  0  0
   -4.9974   21.9615   66.8959 O   0  0  0  0  0  0
   -7.0338   20.9229   67.6530 C   0  0  0  0  0  0
   -6.5857   19.4686   67.7800 C   0  0  0  0  0  0
  -11.8626    8.9296   70.0690 C   0  0  0  0  0  0
  -11.3274    7.4676   73.3848 C   0  0  0  0  0  0
  -10.5292    6.9233   74.3950 C   0  0  0  0  0  0
   -8.0005    6.4773   75.6140 H   0  0  0  0  0  0
   -7.7997    5.2107   74.4777 H   0  0  0  0  0  0
  -11.6647   11.3400   68.8289 H   0  0  0  0  0  0
   -7.4169   12.3342   67.8811 H   0  0  0  0  0  0
   -7.1087   16.2434   66.0003 H   0  0  0  0  0  0
   -5.0135   22.6054   67.6279 H   0  0  0  0  0  0
  1  2  1  0  0  0
  1 41  1  0  0  0
  1 42  1  0  0  0
  2  3  2  0  0  0
  2  4  2  0  0  0
  2  5  1  0  0  0
  5  6  2  0  0  0
  5 40  1  0  0  0
  6  7  1  0  0  0
  7  8  2  0  0  0
  8  9  1  0  0  0
  8 39  1  0  0  0
  9 10  1  0  0  0
 10 11  2  0  0  0
 10 38  1  0  0  0
 11 12  1  0  0  0
 12 13  2  0  0  0
 13 14  1  0  0  0
 14 15  1  0  0  0
 14 38  2  0  0  0
 15 16  1  0  0  0
 15 43  1  0  0  0
 16 17  2  0  0  0
 16 18  1  0  0  0
 18 19  1  0  0  0
 18 20  1  0  0  0
 19 44  1  0  0  0
 20 21  2  0  0  0
 20 25  1  0  0  0
 21 22  1  0  0  0
 22 23  2  0  0  0
 23 24  1  0  0  0
 24 25  2  0  0  0
 25 26  1  0  0  0
 26 27  1  0  0  0
 27 28  1  0  0  0
 28 29  1  0  0  0
 28 45  1  0  0  0
 29 30  2  0  0  0
 29 31  1  0  0  0
 31 32  1  0  0  0
 31 37  1  0  0  0
 32 33  1  0  0  0
 33 34  1  0  0  0
 34 35  1  0  0  0
 34 36  1  0  0  0
 35 46  1  0  0  0
 36 37  1  0  0  0
 39 40  2  0  0  0
M  END
>  <AUTHOR>
    GENERATED BY OPEN BABEL 2.3.2

>  <CHROM.1>
-174.69581731,125.59976075,-103.61367237,79.51883966,-24.18107404,-13.64961989
166.15739324,-57.72509344,5.84981336,112.02464766,-163.33014313,-93.69903823
112.21341586,167.17369890,-9.72112676,11.84461273,69.24822159,-1.85149924
-0.80733702,-0.73897383

>  <COMPND>
    UNNAMED

>  <MASTER>
        0    0    0    0    0    0    0    0   74    0   74    0

>  <Name>
ligands/mol7.pdb

>  <RI>
1.56524e+07

>  <Rbt.Current_Directory>
/home/rochoa/Projects/OCONDOR

>  <Rbt.Executable>
rbdock ($Id: //depot/dev/client3/rdock/2013.1/src/exe/rbdock.cxx#4 $)

>  <Rbt.Library>
libRbt.so (2013.1, Build901 2013/11/27)

>  <Rbt.Parameter_File>
dock.prm

>  <Rbt.Receptor>
rdock.prm

>  <SCORE>
-9.30991

>  <SCORE.INTER>
-12.4914

>  <SCORE.INTER.CONST>
1

>  <SCORE.INTER.POLAR>
-0.775157

>  <SCORE.INTER.REPUL>
0.0171449

>  <SCORE.INTER.ROT>
13

>  <SCORE.INTER.VDW>
-28.3415

>  <SCORE.INTER.norm>
-0.312284

>  <SCORE.INTRA>
3.18145

>  <SCORE.INTRA.DIHEDRAL>
2.33404

>  <SCORE.INTRA.DIHEDRAL.0>
11.1439

>  <SCORE.INTRA.POLAR>
0

>  <SCORE.INTRA.POLAR.0>
0

>  <SCORE.INTRA.REPUL>
0

>  <SCORE.INTRA.REPUL.0>
0

>  <SCORE.INTRA.VDW>
2.01443

>  <SCORE.INTRA.VDW.0>
-6.16825

>  <SCORE.INTRA.norm>
0.0795363

>  <SCORE.RESTR>
0

>  <SCORE.RESTR.CAVITY>
0

>  <SCORE.RESTR.norm>
0

>  <SCORE.SYSTEM>
0

>  <SCORE.SYSTEM.CONST>
0

>  <SCORE.SYSTEM.DIHEDRAL>
0

>  <SCORE.SYSTEM.norm>
0

>  <SCORE.heavy>
40

>  <SCORE.norm>
-0.232748

$$$$
ligands/mol7.pdb
  rDOCK(R)          3D
libRbt.so/2013.1/901 2013/11/27
 46 49  0  0  0  0  0  0  0  0999 V2000
   -6.7686   20.8096   68.2372 N   0  0  0  0  0  0
   -7.9047   20.9523   67.0118 S   0  0  0  0  0  0
   -8.6480   22.1421   67.2809 O   0  0  0  0  0  0
   -7.1735   20.7519   65.7690 O   0  0  0  0  0  0
   -8.9192   19.5392   67.3043 C   0  0  0  0  0  0
   -8.4398   18.4892   68.0804 C   0  0  0  0  0  0
   -9.2422   17.3713   68.2772 C   0  0  0  0  0  0
  -10.5174   17.2932   67.6961 C   0  0  0  0  0  0
  -11.3856   16.0814   67.9139 C   0  0  0  0  0  0
  -11.5136   15.2192   66.6851 C   0  0  0  0  0  0
  -11.4704   15.7685   65.4023 C   0  0  0  0  0  0
  -11.4966   14.9286   64.2889 C   0  0  0  0  0  0
  -11.5734   13.5407   64.4512 C   0  0  0  0  0  0
  -11.6923   12.9937   65.7270 C   0  0  0  0  0  0
  -11.8562   11.6083   65.9338 N   0  0  0  0  0  0
  -10.7598   10.7777   66.1616 C   0  0  0  0  0  0
  -10.0155   10.3584   65.2758 O   0  0  0  0  0  0
  -10.6083   10.3391   67.6296 C   0  0  0  0  0  0
  -10.9189    8.5131   67.6327 S   0  0  0  0  0  0
   -9.2831   10.7281   68.2843 C   0  0  0  0  0  0
   -8.5195   11.7813   67.7616 C   0  0  0  0  0  0
   -7.3048   12.1761   68.2138 N   0  0  0  0  0  0
   -6.8090   11.5162   69.2703 C   0  0  0  0  0  0
   -7.4850   10.4926   69.9060 C   0  0  0  0  0  0
   -8.7455   10.0845   69.4248 C   0  0  0  0  0  0
   -9.4539    9.0075   70.2199 C   0  0  0  0  0  0
  -10.2285    9.5983   71.4030 C   0  0  0  0  0  0
  -10.8370    8.5581   72.2156 N   0  0  0  0  0  0
  -10.1791    7.9389   73.2537 C   0  0  0  0  0  0
   -9.0418    8.2479   73.5827 O   0  0  0  0  0  0
  -10.9657    6.8145   73.9338 C   0  0  0  0  0  0
  -11.3931    5.7258   72.9340 C   0  0  0  0  0  0
  -10.3369    4.6583   72.6488 C   0  0  0  0  0  0
   -9.6799    4.0917   73.8973 C   0  0  0  0  0  0
  -10.5957    3.2456   74.5811 O   0  0  0  0  0  0
   -9.1923    5.1853   74.8397 C   0  0  0  0  0  0
  -10.2345    6.2543   75.1607 C   0  0  0  0  0  0
  -11.6809   13.8360   66.8301 C   0  0  0  0  0  0
  -10.9832   18.3560   66.9158 C   0  0  0  0  0  0
  -10.1854   19.4859   66.7134 C   0  0  0  0  0  0
   -6.2675   21.6919   68.3437 H   0  0  0  0  0  0
   -6.1703   20.0023   68.0761 H   0  0  0  0  0  0
  -12.7309   11.3293   66.3639 H   0  0  0  0  0  0
  -12.2457    8.6076   67.8455 H   0  0  0  0  0  0
  -11.7018    8.1506   71.8847 H   0  0  0  0  0  0
  -11.3716    3.7881   74.8141 H   0  0  0  0  0  0
  1  2  1  0  0  0
  1 41  1  0  0  0
  1 42  1  0  0  0
  2  3  2  0  0  0
  2  4  2  0  0  0
  2  5  1  0  0  0
  5  6  2  0  0  0
  5 40  1  0  0  0
  6  7  1  0  0  0
  7  8  2  0  0  0
  8  9  1  0  0  0
  8 39  1  0  0  0
  9 10  1  0  0  0
 10 11  2  0  0  0
 10 38  1  0  0  0
 11 12  1  0  0  0
 12 13  2  0  0  0
 13 14  1  0  0  0
 14 15  1  0  0  0
 14 38  2  0  0  0
 15 16  1  0  0  0
 15 43  1  0  0  0
 16 17  2  0  0  0
 16 18  1  0  0  0
 18 19  1  0  0  0
 18 20  1  0  0  0
 19 44  1  0  0  0
 20 21  2  0  0  0
 20 25  1  0  0  0
 21 22  1  0  0  0
 22 23  2  0  0  0
 23 24  1  0  0  0
 24 25  2  0  0  0
 25 26  1  0  0  0
 26 27  1  0  0  0
 27 28  1  0  0  0
 28 29  1  0  0  0
 28 45  1  0  0  0
 29 30  2  0  0  0
 29 31  1  0  0  0
 31 32  1  0  0  0
 31 37  1  0  0  0
 32 33  1  0  0  0
 33 34  1  0  0  0
 34 35  1  0  0  0
 34 36  1  0  0  0
 35 46  1  0  0  0
 36 37  1  0  0  0
 39 40  2  0  0  0
M  END
>  <AUTHOR>
    GENERATED BY OPEN BABEL 2.3.2

>  <CHROM.1>
-50.00493903,-18.45761736,-108.21753162,-31.23884362,93.31623633,-79.28800386
113.26876700,-90.48604287,21.67481254,-93.43019222,-176.30571627,87.61486721
56.77447818,-59.55731071,-9.80165882,12.49286070,68.92460027,-1.39720936
1.10085918,2.55268989

>  <COMPND>
    UNNAMED

>  <MASTER>
        0    0    0    0    0    0    0    0   74    0   74    0

>  <Name>
ligands/mol7.pdb

>  <RI>
1.56524e+07

>  <Rbt.Current_Directory>
/home/rochoa/Projects/OCONDOR

>  <Rbt.Executable>
rbdock ($Id: //depot/dev/client3/rdock/2013.1/src/exe/rbdock.cxx#4 $)

>  <Rbt.Library>
libRbt.so (2013.1, Build901 2013/11/27)

>  <Rbt.Parameter_File>
dock.prm

>  <Rbt.Receptor>
rdock.prm

>  <SCORE>
-9.60288

>  <SCORE.INTER>
-11.2061

>  <SCORE.INTER.CONST>
1

>  <SCORE.INTER.POLAR>
-1.41829

>  <SCORE.INTER.REPUL>
0.0329069

>  <SCORE.INTER.ROT>
13

>  <SCORE.INTER.VDW>
-24.9484

>  <SCORE.INTER.norm>
-0.280152

>  <SCORE.INTRA>
1.60165

>  <SCORE.INTRA.DIHEDRAL>
-2.09686

>  <SCORE.INTRA.DIHEDRAL.0>
11.1439

>  <SCORE.INTRA.POLAR>
0

>  <SCORE.INTRA.POLAR.0>
0

>  <SCORE.INTRA.REPUL>
0

>  <SCORE.INTRA.REPUL.0>
0

>  <SCORE.INTRA.VDW>
2.65008

>  <SCORE.INTRA.VDW.0>
-6.16825

>  <SCORE.INTRA.norm>
0.0400413

>  <SCORE.RESTR>
0.00155766

>  <SCORE.RESTR.CAVITY>
0.00155766

>  <SCORE.RESTR.norm>
3.89415e-05

>  <SCORE.SYSTEM>
0

>  <SCORE.SYSTEM.CONST>
0

>  <SCORE.SYSTEM.DIHEDRAL>
0

>  <SCORE.SYSTEM.norm>
0

>  <SCORE.heavy>
40

>  <SCORE.norm>
-0.240072

$$$$
ligands/mol7.pdb
  rDOCK(R)          3D
libRbt.so/2013.1/901 2013/11/27
 46 49  0  0  0  0  0  0  0  0999 V2000
   -9.7987    8.1539   73.6347 N   0  0  0  0  0  0
   -8.8052    7.2310   72.6480 S   0  0  0  0  0  0
   -7.9210    6.5165   73.5129 O   0  0  0  0  0  0
   -9.6930    6.5591   71.7100 O   0  0  0  0  0  0
   -7.9090    8.4794   71.7820 C   0  0  0  0  0  0
   -8.4322    9.0260   70.6149 C   0  0  0  0  0  0
   -7.6994    9.9887   69.9303 C   0  0  0  0  0  0
   -6.4433   10.4019   70.4008 C   0  0  0  0  0  0
   -5.6531   11.4476   69.6580 C   0  0  0  0  0  0
   -6.5242   12.4499   68.9465 C   0  0  0  0  0  0
   -6.7318   12.3852   67.5674 C   0  0  0  0  0  0
   -7.6198   13.2726   66.9592 C   0  0  0  0  0  0
   -8.2967   14.2305   67.7223 C   0  0  0  0  0  0
   -8.0356   14.3471   69.0859 C   0  0  0  0  0  0
   -8.6310   15.3508   69.8777 N   0  0  0  0  0  0
   -9.0510   16.5570   69.3187 C   0  0  0  0  0  0
   -8.2903   17.4003   68.8448 O   0  0  0  0  0  0
  -10.5675   16.7980   69.4313 C   0  0  0  0  0  0
  -11.2409   16.5022   67.7314 S   0  0  0  0  0  0
  -11.2712   15.9772   70.5117 C   0  0  0  0  0  0
  -11.7179   16.5942   71.6887 C   0  0  0  0  0  0
  -12.2954   15.9644   72.7402 N   0  0  0  0  0  0
  -12.4778   14.6411   72.6267 C   0  0  0  0  0  0
  -12.1262   13.9246   71.4989 C   0  0  0  0  0  0
  -11.5203   14.5871   70.4123 C   0  0  0  0  0  0
  -11.2327   13.7462   69.1859 C   0  0  0  0  0  0
  -12.5108   13.4493   68.3941 C   0  0  0  0  0  0
  -12.2910   12.4196   67.3921 N   0  0  0  0  0  0
  -11.4110   12.5706   66.3449 C   0  0  0  0  0  0
  -10.7280   13.5763   66.2058 O   0  0  0  0  0  0
  -11.3840   11.4028   65.3544 C   0  0  0  0  0  0
  -12.0808   11.7569   64.0290 C   0  0  0  0  0  0
  -11.2049   12.4890   63.0126 C   0  0  0  0  0  0
   -9.8352   11.8603   62.8126 C   0  0  0  0  0  0
   -9.9647   10.6471   62.0821 O   0  0  0  0  0  0
   -9.1265   11.5885   64.1339 C   0  0  0  0  0  0
   -9.9707   10.8378   65.1614 C   0  0  0  0  0  0
   -7.1394   13.4709   69.6823 C   0  0  0  0  0  0
   -5.9300    9.8400   71.5740 C   0  0  0  0  0  0
   -6.6598    8.8730   72.2714 C   0  0  0  0  0  0
  -10.3045    8.8360   73.0693 H   0  0  0  0  0  0
   -9.2646    8.5561   74.4019 H   0  0  0  0  0  0
   -9.1488   15.0230   70.6853 H   0  0  0  0  0  0
  -10.7423   17.6332   67.1958 H   0  0  0  0  0  0
  -12.9441   11.6476   67.3623 H   0  0  0  0  0  0
   -9.0640   10.3418   61.8670 H   0  0  0  0  0  0
  1  2  1  0  0  0
  1 41  1  0  0  0
  1 42  1  0  0  0
  2  3  2  0  0  0
  2  4  2  0  0  0
  2  5  1  0  0  0
  5  6  2  0  0  0
  5 40  1  0  0  0
  6  7  1  0  0  0
  7  8  2  0  0  0
  8  9  1  0  0  0
  8 39  1  0  0  0
  9 10  1  0  0  0
 10 11  2  0  0  0
 10 38  1  0  0  0
 11 12  1  0  0  0
 12 13  2  0  0  0
 13 14  1  0  0  0
 14 15  1  0  0  0
 14 38  2  0  0  0
 15 16  1  0  0  0
 15 43  1  0  0  0
 16 17  2  0  0  0
 16 18  1  0  0  0
 18 19  1  0  0  0
 18 20  1  0  0  0
 19 44  1  0  0  0
 20 21  2  0  0  0
 20 25  1  0  0  0
 21 22  1  0  0  0
 22 23  2  0  0  0
 23 24  1  0  0  0
 24 25  2  0  0  0
 25 26  1  0  0  0
 26 27  1  0  0  0
 27 28  1  0  0  0
 28 29  1  0  0  0
 28 45  1  0  0  0
 29 30  2  0  0  0
 29 31  1  0  0  0
 31 32  1  0  0  0
 31 37  1  0  0  0
 32 33  1  0  0  0
 33 34  1  0  0  0
 34 35  1  0  0  0
 34 36  1  0  0  0
 35 46  1  0  0  0
 36 37  1  0  0  0
 39 40  2  0  0  0
M  END
>  <AUTHOR>
    GENERATED BY OPEN BABEL 2.3.2

>  <CHROM.1>
167.40633750,-86.93635704,31.04446857,-102.71141795,-26.20919782,-66.71522689
-105.26225139,-72.54222680,107.21855374,-102.40158262,-167.73965893,-62.45021140
106.15856017,172.21337990,-9.56652174,12.34372319,68.95791197,0.46452227
-1.23852612,1.31900235

>  <COMPND>
    UNNAMED

>  <MASTER>
        0    0    0    0    0    0    0    0   74    0   74    0

>  <Name>
ligands/mol7.pdb

>  <RI>
1.56524e+07

>  <Rbt.Current_Directory>
/home/rochoa/Projects/OCONDOR

>  <Rbt.Executable>
rbdock ($Id: //depot/dev/client3/rdock/2013.1/src/exe/rbdock.cxx#4 $)

>  <Rbt.Library>
libRbt.so (2013.1, Build901 2013/11/27)

>  <Rbt.Parameter_File>
dock.prm

>  <Rbt.Receptor>
rdock.prm

>  <SCORE>
-9.21552

>  <SCORE.INTER>
-9.15338

>  <SCORE.INTER.CONST>
1

>  <SCORE.INTER.POLAR>
-0.969577

>  <SCORE.INTER.REPUL>
0.00218266

>  <SCORE.INTER.ROT>
13

>  <SCORE.INTER.VDW>
-24.2677

>  <SCORE.INTER.norm>
-0.228834

>  <SCORE.INTRA>
-0.0621407

>  <SCORE.INTRA.DIHEDRAL>
1.11345

>  <SCORE.INTRA.DIHEDRAL.0>
11.1439

>  <SCORE.INTRA.POLAR>
0

>  <SCORE.INTRA.POLAR.0>
0

>  <SCORE.INTRA.REPUL>
0

>  <SCORE.INTRA.REPUL.0>
0

>  <SCORE.INTRA.VDW>
-0.618867

>  <SCORE.INTRA.VDW.0>
-6.16825

>  <SCORE.INTRA.norm>
-0.00155352

>  <SCORE.RESTR>
0

>  <SCORE.RESTR.CAVITY>
0

>  <SCORE.RESTR.norm>
0

>  <SCORE.SYSTEM>
0

>  <SCORE.SYSTEM.CONST>
0

>  <SCORE.SYSTEM.DIHEDRAL>
0

>  <SCORE.SYSTEM.norm>
0

>  <SCORE.heavy>
40

>  <SCORE.norm>
-0.230388

$$$$
ligands/mol7.pdb
  rDOCK(R)          3D
libRbt.so/2013.1/901 2013/11/27
 46 49  0  0  0  0  0  0  0  0999 V2000
   -8.9297    4.9815   78.8858 N   0  0  0  0  0  0
  -10.5207    5.0670   78.3624 S   0  0  0  0  0  0
  -11.1181    3.8051   78.6644 O   0  0  0  0  0  0
  -11.0416    6.3227   78.8831 O   0  0  0  0  0  0
  -10.3110    5.2227   76.6179 C   0  0  0  0  0  0
   -9.9140    6.4390   76.0724 C   0  0  0  0  0  0
   -9.7809    6.5514   74.6933 C   0  0  0  0  0  0
  -10.0504    5.4578   73.8558 C   0  0  0  0  0  0
   -9.9022    5.5822   72.3617 C   0  0  0  0  0  0
  -10.9102    6.5167   71.7451 C   0  0  0  0  0  0
  -12.2563    6.4823   72.1141 C   0  0  0  0  0  0
  -13.1411    7.4259   71.5918 C   0  0  0  0  0  0
  -12.6882    8.4005   70.6955 C   0  0  0  0  0  0
  -11.3624    8.3915   70.2674 C   0  0  0  0  0  0
  -10.8824    9.3015   69.3027 N   0  0  0  0  0  0
  -10.7996    8.9493   67.9563 C   0  0  0  0  0  0
  -11.1935    9.6592   67.0315 O   0  0  0  0  0  0
  -10.2529    7.5297   67.7190 C   0  0  0  0  0  0
  -11.7294    6.4996   67.2834 S   0  0  0  0  0  0
   -9.1264    7.4373   66.6901 C   0  0  0  0  0  0
   -9.2083    6.5193   65.6337 C   0  0  0  0  0  0
   -8.2502    6.3016   64.7007 N   0  0  0  0  0  0
   -7.1426    7.0524   64.7846 C   0  0  0  0  0  0
   -6.9614    8.0251   65.7490 C   0  0  0  0  0  0
   -7.9609    8.2403   66.7193 C   0  0  0  0  0  0
   -7.7196    9.3728   67.6956 C   0  0  0  0  0  0
   -8.1355   10.7243   67.1046 C   0  0  0  0  0  0
   -9.0293   11.4446   67.9961 N   0  0  0  0  0  0
   -9.0442   12.8173   68.0915 C   0  0  0  0  0  0
   -8.3229   13.5275   67.4041 O   0  0  0  0  0  0
  -10.0024   13.3780   69.1467 C   0  0  0  0  0  0
   -9.7491   14.8713   69.4175 C   0  0  0  0  0  0
  -10.4384   15.8310   68.4479 C   0  0  0  0  0  0
  -11.9050   15.5133   68.2038 C   0  0  0  0  0  0
  -12.6692   15.8555   69.3530 O   0  0  0  0  0  0
  -12.1279   14.0457   67.8597 C   0  0  0  0  0  0
  -11.4690   13.0629   68.8250 C   0  0  0  0  0  0
  -10.4906    7.4405   70.7792 C   0  0  0  0  0  0
  -10.4518    4.2428   74.4199 C   0  0  0  0  0  0
  -10.5865    4.1183   75.8057 C   0  0  0  0  0  0
   -8.5027    5.9066   78.8357 H   0  0  0  0  0  0
   -8.4262    4.2572   78.3783 H   0  0  0  0  0  0
  -11.0471   10.2814   69.5037 H   0  0  0  0  0  0
  -12.4683    6.8767   68.3447 H   0  0  0  0  0  0
   -9.5202   10.9094   68.7004 H   0  0  0  0  0  0
  -13.6030   15.6663   69.1460 H   0  0  0  0  0  0
  1  2  1  0  0  0
  1 41  1  0  0  0
  1 42  1  0  0  0
  2  3  2  0  0  0
  2  4  2  0  0  0
  2  5  1  0  0  0
  5  6  2  0  0  0
  5 40  1  0  0  0
  6  7  1  0  0  0
  7  8  2  0  0  0
  8  9  1  0  0  0
  8 39  1  0  0  0
  9 10  1  0  0  0
 10 11  2  0  0  0
 10 38  1  0  0  0
 11 12  1  0  0  0
 12 13  2  0  0  0
 13 14  1  0  0  0
 14 15  1  0  0  0
 14 38  2  0  0  0
 15 16  1  0  0  0
 15 43  1  0  0  0
 16 17  2  0  0  0
 16 18  1  0  0  0
 18 19  1  0  0  0
 18 20  1  0  0  0
 19 44  1  0  0  0
 20 21  2  0  0  0
 20 25  1  0  0  0
 21 22  1  0  0  0
 22 23  2  0  0  0
 23 24  1  0  0  0
 24 25  2  0  0  0
 25 26  1  0  0  0
 26 27  1  0  0  0
 27 28  1  0  0  0
 28 29  1  0  0  0
 28 45  1  0  0  0
 29 30  2  0  0  0
 29 31  1  0  0  0
 31 32  1  0  0  0
 31 37  1  0  0  0
 32 33  1  0  0  0
 33 34  1  0  0  0
 34 35  1  0  0  0
 34 36  1  0  0  0
 35 46  1  0  0  0
 36 37  1  0  0  0
 39 40  2  0  0  0
M  END
>  <AUTHOR>
    GENERATED BY OPEN BABEL 2.3.2

>  <CHROM.1>
-170.62051436,-76.11166504,-66.99522380,-44.17888006,-96.37085025,133.42718967
103.97954146,-51.29928157,-128.43008226,-94.48463385,128.03550169,147.19822423
167.42722884,178.09911284,-10.26620286,8.59617347,70.67154454,1.77684869
-1.32130250,2.37038629

>  <COMPND>
    UNNAMED

>  <MASTER>
        0    0    0    0    0    0    0    0   74    0   74    0

>  <Name>
ligands/mol7.pdb

>  <RI>
1.56524e+07

>  <Rbt.Current_Directory>
/home/rochoa/Projects/OCONDOR

>  <Rbt.Executable>
rbdock ($Id: //depot/dev/client3/rdock/2013.1/src/exe/rbdock.cxx#4 $)

>  <Rbt.Library>
libRbt.so (2013.1, Build901 2013/11/27)

>  <Rbt.Parameter_File>
dock.prm

>  <Rbt.Receptor>
rdock.prm

>  <SCORE>
-8.08376

>  <SCORE.INTER>
-6.54449

>  <SCORE.INTER.CONST>
1

>  <SCORE.INTER.POLAR>
-0.973232

>  <SCORE.INTER.REPUL>
0

>  <SCORE.INTER.ROT>
13

>  <SCORE.INTER.VDW>
-21.6355

>  <SCORE.INTER.norm>
-0.163612

>  <SCORE.INTRA>
-1.53927

>  <SCORE.INTRA.DIHEDRAL>
3.05735

>  <SCORE.INTRA.DIHEDRAL.0>
11.1439

>  <SCORE.INTRA.POLAR>
-1

>  <SCORE.INTRA.POLAR.0>
0

>  <SCORE.INTRA.REPUL>
0

>  <SCORE.INTRA.REPUL.0>
0

>  <SCORE.INTRA.VDW>
0.33206

>  <SCORE.INTRA.VDW.0>
-6.16825

>  <SCORE.INTRA.norm>
-0.0384817

>  <SCORE.RESTR>
0

>  <SCORE.RESTR.CAVITY>
0

>  <SCORE.RESTR.norm>
0

>  <SCORE.SYSTEM>
0

>  <SCORE.SYSTEM.CONST>
0

>  <SCORE.SYSTEM.DIHEDRAL>
0

>  <SCORE.SYSTEM.norm>
0

>  <SCORE.heavy>
40

>  <SCORE.norm>
-0.202094

$$$$
ligands/mol7.pdb
  rDOCK(R)          3D
libRbt.so/2013.1/901 2013/11/27
 46 49  0  0  0  0  0  0  0  0999 V2000
  -12.5723   15.6394   69.6383 N   0  0  0  0  0  0
  -11.3042   16.6202   69.1459 S   0  0  0  0  0  0
  -11.7009   17.2084   67.9061 O   0  0  0  0  0  0
  -10.9456   17.4176   70.3099 O   0  0  0  0  0  0
  -10.0304   15.4339   68.8599 C   0  0  0  0  0  0
  -10.0723   14.6306   67.7252 C   0  0  0  0  0  0
   -9.0752   13.6818   67.5301 C   0  0  0  0  0  0
   -8.0414   13.5257   68.4665 C   0  0  0  0  0  0
   -6.9607   12.4984   68.2504 C   0  0  0  0  0  0
   -7.1898   11.2291   69.0289 C   0  0  0  0  0  0
   -6.5469   10.9952   70.2459 C   0  0  0  0  0  0
   -6.8565    9.8522   70.9833 C   0  0  0  0  0  0
   -7.8013    8.9368   70.5062 C   0  0  0  0  0  0
   -8.3891    9.1286   69.2577 C   0  0  0  0  0  0
   -9.2827    8.1907   68.7003 N   0  0  0  0  0  0
  -10.6598    8.3082   68.8838 C   0  0  0  0  0  0
  -11.2479    9.3793   69.0297 O   0  0  0  0  0  0
  -11.3892    6.9564   68.9882 C   0  0  0  0  0  0
  -11.6019    6.3752   67.2425 S   0  0  0  0  0  0
  -10.7097    5.9262   69.8899 C   0  0  0  0  0  0
   -9.5810    5.2278   69.4385 C   0  0  0  0  0  0
   -8.9330    4.2508   70.1179 N   0  0  0  0  0  0
   -9.4000    3.9510   71.3383 C   0  0  0  0  0  0
  -10.4742    4.6002   71.9160 C   0  0  0  0  0  0
  -11.1460    5.6109   71.1992 C   0  0  0  0  0  0
  -12.2652    6.3243   71.9291 C   0  0  0  0  0  0
  -11.8437    7.7301   72.3703 C   0  0  0  0  0  0
  -10.6312    7.6974   73.1711 N   0  0  0  0  0  0
  -10.4533    6.8290   74.2238 C   0  0  0  0  0  0
  -11.2975    6.0005   74.5367 O   0  0  0  0  0  0
   -9.1390    7.0080   74.9896 C   0  0  0  0  0  0
   -9.1677    6.2980   76.3543 C   0  0  0  0  0  0
   -8.8111    4.8121   76.3186 C   0  0  0  0  0  0
   -7.5610    4.4971   75.5127 C   0  0  0  0  0  0
   -6.4083    4.9310   76.2234 O   0  0  0  0  0  0
   -7.5852    5.1444   74.1334 C   0  0  0  0  0  0
   -7.9169    6.6350   74.1404 C   0  0  0  0  0  0
   -8.0654   10.2602   68.5221 C   0  0  0  0  0  0
   -8.0157   14.3390   69.6037 C   0  0  0  0  0  0
   -9.0121   15.2979   69.8084 C   0  0  0  0  0  0
  -13.2117   15.4890   68.8577 H   0  0  0  0  0  0
  -13.0109   16.0175   70.4752 H   0  0  0  0  0  0
   -8.9779    7.7529   67.8382 H   0  0  0  0  0  0
  -11.8342    7.5975   66.7262 H   0  0  0  0  0  0
   -9.9793    8.4637   73.0660 H   0  0  0  0  0  0
   -6.5466    5.8683   76.4537 H   0  0  0  0  0  0
  1  2  1  0  0  0
  1 41  1  0  0  0
  1 42  1  0  0  0
  2  3  2  0  0  0
  2  4  2  0  0  0
  2  5  1  0  0  0
  5  6  2  0  0  0
  5 40  1  0  0  0
  6  7  1  0  0  0
  7  8  2  0  0  0
  8  9  1  0  0  0
  8 39  1  0  0  0
  9 10  1  0  0  0
 10 11  2  0  0  0
 10 38  1  0  0  0
 11 12  1  0  0  0
 12 13  2  0  0  0
 13 14  1  0  0  0
 14 15  1  0  0  0
 14 38  2  0  0  0
 15 16  1  0  0  0
 15 43  1  0  0  0
 16 17  2  0  0  0
 16 18  1  0  0  0
 18 19  1  0  0  0
 18 20  1  0  0  0
 19 44  1  0  0  0
 20 21  2  0  0  0
 20 25  1  0  0  0
 21 22  1  0  0  0
 22 23  2  0  0  0
 23 24  1  0  0  0
 24 25  2  0  0  0
 25 26  1  0  0  0
 26 27  1  0  0  0
 27 28  1  0  0  0
 28 29  1  0  0  0
 28 45  1  0  0  0
 29 30  2  0  0  0
 29 31  1  0  0  0
 31 32  1  0  0  0
 31 37  1  0  0  0
 32 33  1  0  0  0
 33 34  1  0  0  0
 34 35  1  0  0  0
 34 36  1  0  0  0
 35 46  1  0  0  0
 36 37  1  0  0  0
 39 40  2  0  0  0
M  END
>  <AUTHOR>
    GENERATED BY OPEN BABEL 2.3.2

>  <CHROM.1>
14.69273097,74.91530858,-99.25988810,-98.45150615,92.84945951,29.98870777
-80.59156620,-36.96647631,-76.86836400,-72.36709679,-54.96557222,-47.96598583
164.27704327,-52.96677344,-9.66321718,9.40527437,70.78659764,-1.81715068
1.21532572,2.94173432

>  <COMPND>
    UNNAMED

>  <MASTER>
        0    0    0    0    0    0    0    0   74    0   74    0

>  <Name>
ligands/mol7.pdb

>  <RI>
1.56524e+07

>  <Rbt.Current_Directory>
/home/rochoa/Projects/OCONDOR

>  <Rbt.Executable>
rbdock ($Id: //depot/dev/client3/rdock/2013.1/src/exe/rbdock.cxx#4 $)

>  <Rbt.Library>
libRbt.so (2013.1, Build901 2013/11/27)

>  <Rbt.Parameter_File>
dock.prm

>  <Rbt.Receptor>
rdock.prm

>  <SCORE>
-6.74734

>  <SCORE.INTER>
-5.81695

>  <SCORE.INTER.CONST>
1

>  <SCORE.INTER.POLAR>
-0.894427

>  <SCORE.INTER.REPUL>
0.0184616

>  <SCORE.INTER.ROT>
13

>  <SCORE.INTER.VDW>
-21.2682

>  <SCORE.INTER.norm>
-0.145424

>  <SCORE.INTRA>
-0.930392

>  <SCORE.INTRA.DIHEDRAL>
-0.297319

>  <SCORE.INTRA.DIHEDRAL.0>
11.1439

>  <SCORE.INTRA.POLAR>
0

>  <SCORE.INTRA.POLAR.0>
0

>  <SCORE.INTRA.REPUL>
0

>  <SCORE.INTRA.REPUL.0>
0

>  <SCORE.INTRA.VDW>
-0.781732

>  <SCORE.INTRA.VDW.0>
-6.16825

>  <SCORE.INTRA.norm>
-0.0232598

>  <SCORE.RESTR>
0

>  <SCORE.RESTR.CAVITY>
0

>  <SCORE.RESTR.norm>
0

>  <SCORE.SYSTEM>
0

>  <SCORE.SYSTEM.CONST>
0

>  <SCORE.SYSTEM.DIHEDRAL>
0

>  <SCORE.SYSTEM.norm>
0

>  <SCORE.heavy>
40

>  <SCORE.norm>
-0.168684

$$$$
ligands/mol7.pdb
  rDOCK(R)          3D
libRbt.so/2013.1/901 2013/11/27
 46 49  0  0  0  0  0  0  0  0999 V2000
  -12.4692   15.5663   68.8589 N   0  0  0  0  0  0
  -11.4042   16.1193   67.6874 S   0  0  0  0  0  0
  -11.7371   15.4359   66.4780 O   0  0  0  0  0  0
  -11.4180   17.5711   67.7937 O   0  0  0  0  0  0
   -9.8621   15.5226   68.3017 C   0  0  0  0  0  0
   -9.6373   15.4637   69.6731 C   0  0  0  0  0  0
   -8.4060   15.0173   70.1388 C   0  0  0  0  0  0
   -7.3954   14.6374   69.2420 C   0  0  0  0  0  0
   -6.0631   14.1512   69.7503 C   0  0  0  0  0  0
   -6.1073   12.7332   70.2571 C   0  0  0  0  0  0
   -6.7915   11.7329   69.5638 C   0  0  0  0  0  0
   -6.7303   10.4138   70.0135 C   0  0  0  0  0  0
   -5.9937   10.0901   71.1585 C   0  0  0  0  0  0
   -5.3720   11.0961   71.8949 C   0  0  0  0  0  0
   -4.6898   10.8276   73.0997 N   0  0  0  0  0  0
   -5.3497   10.2705   74.1942 C   0  0  0  0  0  0
   -6.0436   10.9125   74.9820 O   0  0  0  0  0  0
   -5.0564    8.7729   74.3988 C   0  0  0  0  0  0
   -5.6848    8.3751   76.0951 S   0  0  0  0  0  0
   -5.6178    7.8531   73.3149 C   0  0  0  0  0  0
   -4.7812    6.9350   72.6648 C   0  0  0  0  0  0
   -5.1464    6.1153   71.6496 N   0  0  0  0  0  0
   -6.4271    6.1724   71.2570 C   0  0  0  0  0  0
   -7.3621    6.9992   71.8497 C   0  0  0  0  0  0
   -6.9716    7.8530   72.9010 C   0  0  0  0  0  0
   -8.0694    8.6731   73.5461 C   0  0  0  0  0  0
   -8.9679    7.8093   74.4378 C   0  0  0  0  0  0
   -9.6742    6.8001   73.6663 N   0  0  0  0  0  0
  -10.9304    7.0025   73.1423 C   0  0  0  0  0  0
  -11.5261    8.0641   73.2658 O   0  0  0  0  0  0
  -11.5333    5.7879   72.4303 C   0  0  0  0  0  0
  -10.6832    5.3472   71.2259 C   0  0  0  0  0  0
   -9.5125    4.4241   71.5630 C   0  0  0  0  0  0
   -9.8816    3.2705   72.4819 C   0  0  0  0  0  0
  -10.6519    2.3129   71.7664 O   0  0  0  0  0  0
  -10.6555    3.7354   73.7095 C   0  0  0  0  0  0
  -11.8452    4.6416   73.4011 C   0  0  0  0  0  0
   -5.4494   12.4087   71.4506 C   0  0  0  0  0  0
   -7.6363   14.7056   67.8662 C   0  0  0  0  0  0
   -8.8718   15.1509   67.3872 C   0  0  0  0  0  0
  -12.2846   14.5816   69.0519 H   0  0  0  0  0  0
  -13.4299   15.7702   68.5919 H   0  0  0  0  0  0
   -3.7046   10.6069   73.0063 H   0  0  0  0  0  0
   -6.9031    8.9203   75.9132 H   0  0  0  0  0  0
   -9.3053    5.8582   73.6778 H   0  0  0  0  0  0
  -10.1009    1.9915   71.0290 H   0  0  0  0  0  0
  1  2  1  0  0  0
  1 41  1  0  0  0
  1 42  1  0  0  0
  2  3  2  0  0  0
  2  4  2  0  0  0
  2  5  1  0  0  0
  5  6  2  0  0  0
  5 40  1  0  0  0
  6  7  1  0  0  0
  7  8  2  0  0  0
  8  9  1  0  0  0
  8 39  1  0  0  0
  9 10  1  0  0  0
 10 11  2  0  0  0
 10 38  1  0  0  0
 11 12  1  0  0  0
 12 13  2  0  0  0
 13 14  1  0  0  0
 14 15  1  0  0  0
 14 38  2  0  0  0
 15 16  1  0  0  0
 15 43  1  0  0  0
 16 17  2  0  0  0
 16 18  1  0  0  0
 18 19  1  0  0  0
 18 20  1  0  0  0
 19 44  1  0  0  0
 20 21  2  0  0  0
 20 25  1  0  0  0
 21 22  1  0  0  0
 22 23  2  0  0  0
 23 24  1  0  0  0
 24 25  2  0  0  0
 25 26  1  0  0  0
 26 27  1  0  0  0
 27 28  1  0  0  0
 28 29  1  0  0  0
 28 45  1  0  0  0
 29 30  2  0  0  0
 29 31  1  0  0  0
 31 32  1  0  0  0
 31 37  1  0  0  0
 32 33  1  0  0  0
 33 34  1  0  0  0
 34 35  1  0  0  0
 34 36  1  0  0  0
 35 46  1  0  0  0
 36 37  1  0  0  0
 39 40  2  0  0  0
M  END
>  <AUTHOR>
    GENERATED BY OPEN BABEL 2.3.2

>  <CHROM.1>
66.82532244,-34.46270331,76.85023883,43.03703248,-60.32769837,-80.59799543
166.58746455,50.56511488,127.48781875,-103.72635062,-63.57635404,-92.28042238
-61.22639942,60.36259980,-8.32292967,10.04284376,71.49320408,1.70130644,-0.42675860
-0.41354763

>  <COMPND>
    UNNAMED

>  <MASTER>
        0    0    0    0    0    0    0    0   74    0   74    0

>  <Name>
ligands/mol7.pdb

>  <RI>
1.56524e+07

>  <Rbt.Current_Directory>
/home/rochoa/Projects/OCONDOR

>  <Rbt.Executable>
rbdock ($Id: //depot/dev/client3/rdock/2013.1/src/exe/rbdock.cxx#4 $)

>  <Rbt.Library>
libRbt.so (2013.1, Build901 2013/11/27)

>  <Rbt.Parameter_File>
dock.prm

>  <Rbt.Receptor>
rdock.prm

>  <SCORE>
-4.10276

>  <SCORE.INTER>
-1.59881

>  <SCORE.INTER.CONST>
1

>  <SCORE.INTER.POLAR>
-0.894427

>  <SCORE.INTER.REPUL>
0

>  <SCORE.INTER.ROT>
13

>  <SCORE.INTER.VDW>
-16.9578

>  <SCORE.INTER.norm>
-0.0399701

>  <SCORE.INTRA>
-2.50396

>  <SCORE.INTRA.DIHEDRAL>
-2.42758

>  <SCORE.INTRA.DIHEDRAL.0>
11.1439

>  <SCORE.INTRA.POLAR>
0

>  <SCORE.INTRA.POLAR.0>
0

>  <SCORE.INTRA.REPUL>
0

>  <SCORE.INTRA.REPUL.0>
0

>  <SCORE.INTRA.VDW>
-1.29017

>  <SCORE.INTRA.VDW.0>
-6.16825

>  <SCORE.INTRA.norm>
-0.062599

>  <SCORE.RESTR>
0

>  <SCORE.RESTR.CAVITY>
0

>  <SCORE.RESTR.norm>
0

>  <SCORE.SYSTEM>
0

>  <SCORE.SYSTEM.CONST>
0

>  <SCORE.SYSTEM.DIHEDRAL>
0

>  <SCORE.SYSTEM.norm>
0

>  <SCORE.heavy>
40

>  <SCORE.norm>
-0.102569

$$$$
