ligands/mol8.pdb
  rDOCK(R)          3D
libRbt.so/2013.1/901 2013/11/27
 47 50  0  0  0  0  0  0  0  0999 V2000
  -13.4157   11.5141   63.1378 N   0  0  0  0  0  0
  -11.7831   11.7597   63.4579 S   0  0  0  0  0  0
  -11.2023   10.4215   63.5820 O   0  0  0  0  0  0
  -11.3300   12.7118   62.4916 O   0  0  0  0  0  0
  -11.8318   12.5064   65.0692 C   0  0  0  0  0  0
  -10.9004   12.1517   66.0405 C   0  0  0  0  0  0
  -10.9660   12.7674   67.2996 C   0  0  0  0  0  0
  -11.9685   13.7069   67.5913 C   0  0  0  0  0  0
  -12.0941   14.3127   68.9745 C   0  0  0  0  0  0
  -12.4767   13.4089   70.1336 C   0  0  0  0  0  0
  -13.2452   13.8927   71.1983 C   0  0  0  0  0  0
  -13.7998   13.0089   72.1227 C   0  0  0  0  0  0
  -13.6206   11.6274   71.9839 C   0  0  0  0  0  0
  -12.8507   11.1086   70.9425 C   0  0  0  0  0  0
  -12.7080    9.7151   70.6814 N   0  0  0  0  0  0
  -12.4308    8.7143   71.6028 C   0  0  0  0  0  0
  -12.1911    8.8959   72.7970 O   0  0  0  0  0  0
  -12.5707    7.2644   71.1055 C   0  0  0  0  0  0
  -14.0730    7.0328   70.7428 C   0  0  0  0  0  0
  -15.3252    7.1942   72.0817 S   0  0  0  0  0  0
  -11.5080    6.8061   70.1019 C   0  0  0  0  0  0
  -11.8734    6.6286   68.7585 C   0  0  0  0  0  0
  -11.0367    6.3770   67.7299 N   0  0  0  0  0  0
   -9.7472    6.2405   68.0360 C   0  0  0  0  0  0
   -9.2823    6.2581   69.3342 C   0  0  0  0  0  0
  -10.1519    6.5278   70.4105 C   0  0  0  0  0  0
   -9.5548    6.3959   71.8096 C   0  0  0  0  0  0
   -9.3250    7.7173   72.5721 C   0  0  0  0  0  0
   -9.3188    7.5905   74.0219 N   0  0  0  0  0  0
   -8.3981    6.7965   74.6674 C   0  0  0  0  0  0
   -7.5534    6.1467   74.0576 O   0  0  0  0  0  0
   -8.5650    6.7155   76.1915 C   0  0  0  0  0  0
   -9.8927    6.0196   76.5519 C   0  0  0  0  0  0
   -9.8359    4.4980   76.3653 C   0  0  0  0  0  0
   -8.6223    3.8615   77.0430 C   0  0  0  0  0  0
   -8.7100    3.9822   78.4623 O   0  0  0  0  0  0
   -7.3292    4.5401   76.5988 C   0  0  0  0  0  0
   -7.3798    6.0396   76.8944 C   0  0  0  0  0  0
  -12.2498   12.0143   70.0483 C   0  0  0  0  0  0
  -12.9120   14.0177   66.5959 C   0  0  0  0  0  0
  -12.8426   13.4248   65.3371 C   0  0  0  0  0  0
  -13.5350   10.9694   62.2891 H   0  0  0  0  0  0
  -13.8999   12.4180   63.1309 H   0  0  0  0  0  0
  -12.8861    9.4290   69.7242 H   0  0  0  0  0  0
  -14.5931    6.6787   73.0817 H   0  0  0  0  0  0
   -9.8293    8.2781   74.5576 H   0  0  0  0  0  0
   -9.4702    3.4635   78.7747 H   0  0  0  0  0  0
  1  2  1  0  0  0
  1 42  1  0  0  0
  1 43  1  0  0  0
  2  3  2  0  0  0
  2  4  2  0  0  0
  2  5  1  0  0  0
  5  6  2  0  0  0
  5 41  1  0  0  0
  6  7  1  0  0  0
  7  8  2  0  0  0
  8  9  1  0  0  0
  8 40  1  0  0  0
  9 10  1  0  0  0
 10 11  2  0  0  0
 10 39  1  0  0  0
 11 12  1  0  0  0
 12 13  2  0  0  0
 13 14  1  0  0  0
 14 15  1  0  0  0
 14 39  2  0  0  0
 15 16  1  0  0  0
 15 44  1  0  0  0
 16 17  2  0  0  0
 16 18  1  0  0  0
 18 19  1  0  0  0
 18 21  1  0  0  0
 19 20  1  0  0  0
 20 45  1  0  0  0
 21 22  2  0  0  0
 21 26  1  0  0  0
 22 23  1  0  0  0
 23 24  2  0  0  0
 24 25  1  0  0  0
 25 26  2  0  0  0
 26 27  1  0  0  0
 27 28  1  0  0  0
 28 29  1  0  0  0
 29 30  1  0  0  0
 29 46  1  0  0  0
 30 31  2  0  0  0
 30 32  1  0  0  0
 32 33  1  0  0  0
 32 38  1  0  0  0
 33 34  1  0  0  0
 34 35  1  0  0  0
 35 36  1  0  0  0
 35 37  1  0  0  0
 36 47  1  0  0  0
 37 38  1  0  0  0
 40 41  2  0  0  0
M  END
>  <AUTHOR>
    GENERATED BY OPEN BABEL 2.3.2

>  <CHROM.1>
-58.82309152,139.41409540,-65.86909772,-147.07335392,-46.96532405,-63.99763993
-61.69526911,-107.96711369,-36.13724633,-75.96226136,154.79503980,60.64624686
65.35438661,65.16763874,-11.26854108,9.04365585,70.44779732,-2.04259143,-1.02327665
1.74454637

>  <COMPND>
    UNNAMED

>  <MASTER>
        0    0    0    0    0    0    0    0   77    0   77    0

>  <Name>
ligands/mol8.pdb

>  <RI>
1.64757e+07

>  <Rbt.Current_Directory>
/home/rochoa/Projects/OCONDOR

>  <Rbt.Executable>
rbdock ($Id: //depot/dev/client3/rdock/2013.1/src/exe/rbdock.cxx#4 $)

>  <Rbt.Library>
libRbt.so (2013.1, Build901 2013/11/27)

>  <Rbt.Parameter_File>
dock.prm

>  <Rbt.Receptor>
rdock.prm

>  <SCORE>
-25.1883

>  <SCORE.INTER>
-25.7405

>  <SCORE.INTER.CONST>
1

>  <SCORE.INTER.POLAR>
-3.19609

>  <SCORE.INTER.REPUL>
0.0168688

>  <SCORE.INTER.ROT>
13

>  <SCORE.INTER.VDW>
-33.3581

>  <SCORE.INTER.norm>
-0.627817

>  <SCORE.INTRA>
0.552221

>  <SCORE.INTRA.DIHEDRAL>
1.83145

>  <SCORE.INTRA.DIHEDRAL.0>
15.0264

>  <SCORE.INTRA.POLAR>
0

>  <SCORE.INTRA.POLAR.0>
0

>  <SCORE.INTRA.REPUL>
0

>  <SCORE.INTRA.REPUL.0>
0

>  <SCORE.INTRA.VDW>
-0.363502

>  <SCORE.INTRA.VDW.0>
-4.74907

>  <SCORE.INTRA.norm>
0.0134688

>  <SCORE.RESTR>
0

>  <SCORE.RESTR.CAVITY>
0

>  <SCORE.RESTR.norm>
0

>  <SCORE.SYSTEM>
0

>  <SCORE.SYSTEM.CONST>
0

>  <SCORE.SYSTEM.DIHEDRAL>
0

>  <SCORE.SYSTEM.norm>
0

>  <SCORE.heavy>
41

>  <SCORE.norm>
-0.614348

$$$$
ligands/mol8.pdb
  rDOCK(R)          3D
libRbt.so/2013.1/901 2013/11/27
 47 50  0  0  0  0  0  0  0  0999 V2000
   -8.5724    4.7296   76.1209 N   0  0  0  0  0  0
  -10.2031    4.3340   76.0095 S   0  0  0  0  0  0
  -10.2397    2.9614   75.5013 O   0  0  0  0  0  0
  -10.7873    4.7106   77.2595 O   0  0  0  0  0  0
  -10.7606    5.4273   74.7250 C   0  0  0  0  0  0
  -10.4231    6.7772   74.7505 C   0  0  0  0  0  0
  -10.8760    7.6091   73.7154 C   0  0  0  0  0  0
  -11.6796    7.1009   72.6816 C   0  0  0  0  0  0
  -12.2397    8.0108   71.6071 C   0  0  0  0  0  0
  -11.2941    8.9582   70.8893 C   0  0  0  0  0  0
  -10.0450    8.5195   70.4360 C   0  0  0  0  0  0
   -9.2952    9.3115   69.5678 C   0  0  0  0  0  0
   -9.7914   10.5400   69.1158 C   0  0  0  0  0  0
  -11.0269   11.0161   69.5555 C   0  0  0  0  0  0
  -11.6381   12.2053   69.0630 N   0  0  0  0  0  0
  -11.0619   13.1652   68.2421 C   0  0  0  0  0  0
   -9.8886   13.1672   67.8681 O   0  0  0  0  0  0
  -12.0099   14.2262   67.6549 C   0  0  0  0  0  0
  -11.8115   15.5418   68.4747 C   0  0  0  0  0  0
  -12.7099   15.7147   70.0714 S   0  0  0  0  0  0
  -12.0236   14.3245   66.1264 C   0  0  0  0  0  0
  -12.6795   13.3281   65.3869 C   0  0  0  0  0  0
  -12.9115   13.3426   64.0575 N   0  0  0  0  0  0
  -12.4277   14.3852   63.3838 C   0  0  0  0  0  0
  -11.6504   15.3596   63.9739 C   0  0  0  0  0  0
  -11.4118   15.3518   65.3633 C   0  0  0  0  0  0
  -10.4357   16.4030   65.8862 C   0  0  0  0  0  0
  -10.7422   17.8630   65.4926 C   0  0  0  0  0  0
  -10.2624   18.8614   66.4365 N   0  0  0  0  0  0
   -8.9244   19.1700   66.5343 C   0  0  0  0  0  0
   -8.0728   18.6113   65.8486 O   0  0  0  0  0  0
   -8.5715   20.1940   67.6224 C   0  0  0  0  0  0
   -7.6810   19.5476   68.7022 C   0  0  0  0  0  0
   -6.2281   19.3669   68.2443 C   0  0  0  0  0  0
   -5.6271   20.6443   67.6576 C   0  0  0  0  0  0
   -5.4982   21.6530   68.6590 O   0  0  0  0  0  0
   -6.5108   21.2044   66.5463 C   0  0  0  0  0  0
   -7.9246   21.4695   67.0654 C   0  0  0  0  0  0
  -11.7490   10.2331   70.4755 C   0  0  0  0  0  0
  -12.0272    5.7385   72.7049 C   0  0  0  0  0  0
  -11.5661    4.9018   73.7190 C   0  0  0  0  0  0
   -8.0496    3.9711   76.5480 H   0  0  0  0  0  0
   -8.4740    5.6317   76.5985 H   0  0  0  0  0  0
  -12.6180   12.3233   69.2988 H   0  0  0  0  0  0
  -13.9575   15.5736   69.5970 H   0  0  0  0  0  0
  -10.9388   19.4966   66.8357 H   0  0  0  0  0  0
   -5.0599   22.4279   68.2689 H   0  0  0  0  0  0
  1  2  1  0  0  0
  1 42  1  0  0  0
  1 43  1  0  0  0
  2  3  2  0  0  0
  2  4  2  0  0  0
  2  5  1  0  0  0
  5  6  2  0  0  0
  5 41  1  0  0  0
  6  7  1  0  0  0
  7  8  2  0  0  0
  8  9  1  0  0  0
  8 40  1  0  0  0
  9 10  1  0  0  0
 10 11  2  0  0  0
 10 39  1  0  0  0
 11 12  1  0  0  0
 12 13  2  0  0  0
 13 14  1  0  0  0
 14 15  1  0  0  0
 14 39  2  0  0  0
 15 16  1  0  0  0
 15 44  1  0  0  0
 16 17  2  0  0  0
 16 18  1  0  0  0
 18 19  1  0  0  0
 18 21  1  0  0  0
 19 20  1  0  0  0
 20 45  1  0  0  0
 21 22  2  0  0  0
 21 26  1  0  0  0
 22 23  1  0  0  0
 23 24  2  0  0  0
 24 25  1  0  0  0
 25 26  2  0  0  0
 26 27  1  0  0  0
 27 28  1  0  0  0
 28 29  1  0  0  0
 29 30  1  0  0  0
 29 46  1  0  0  0
 30 31  2  0  0  0
 30 32  1  0  0  0
 32 33  1  0  0  0
 32 38  1  0  0  0
 33 34  1  0  0  0
 34 35  1  0  0  0
 35 36  1  0  0  0
 35 37  1  0  0  0
 36 47  1  0  0  0
 37 38  1  0  0  0
 40 41  2  0  0  0
M  END
>  <AUTHOR>
    GENERATED BY OPEN BABEL 2.3.2

>  <CHROM.1>
-45.20623314,-47.45894598,50.14833360,44.78028198,-9.79684013,102.85639669
-82.60568962,74.65682605,-58.45805625,-131.27445670,152.15352977,73.77870692
115.78131267,176.24157832,-10.29087145,12.71099971,69.61939987,-1.73388125
-0.81586827,-0.65192553

>  <COMPND>
    UNNAMED

>  <MASTER>
        0    0    0    0    0    0    0    0   77    0   77    0

>  <Name>
ligands/mol8.pdb

>  <RI>
1.64757e+07

>  <Rbt.Current_Directory>
/home/rochoa/Projects/OCONDOR

>  <Rbt.Executable>
rbdock ($Id: //depot/dev/client3/rdock/2013.1/src/exe/rbdock.cxx#4 $)

>  <Rbt.Library>
libRbt.so (2013.1, Build901 2013/11/27)

>  <Rbt.Parameter_File>
dock.prm

>  <Rbt.Receptor>
rdock.prm

>  <SCORE>
-18.5296

>  <SCORE.INTER>
-19.7642

>  <SCORE.INTER.CONST>
1

>  <SCORE.INTER.POLAR>
-1.45536

>  <SCORE.INTER.REPUL>
0

>  <SCORE.INTER.ROT>
13

>  <SCORE.INTER.VDW>
-33.216

>  <SCORE.INTER.norm>
-0.482055

>  <SCORE.INTRA>
1.23467

>  <SCORE.INTRA.DIHEDRAL>
1.59914

>  <SCORE.INTRA.DIHEDRAL.0>
15.0264

>  <SCORE.INTRA.POLAR>
0

>  <SCORE.INTRA.POLAR.0>
0

>  <SCORE.INTRA.REPUL>
0

>  <SCORE.INTRA.REPUL.0>
0

>  <SCORE.INTRA.VDW>
0.435094

>  <SCORE.INTRA.VDW.0>
-4.74907

>  <SCORE.INTRA.norm>
0.0301138

>  <SCORE.RESTR>
0

>  <SCORE.RESTR.CAVITY>
0

>  <SCORE.RESTR.norm>
0

>  <SCORE.SYSTEM>
0

>  <SCORE.SYSTEM.CONST>
0

>  <SCORE.SYSTEM.DIHEDRAL>
0

>  <SCORE.SYSTEM.norm>
0

>  <SCORE.heavy>
41

>  <SCORE.norm>
-0.451941

$$$$
ligands/mol8.pdb
  rDOCK(R)          3D
libRbt.so/2013.1/901 2013/11/27
 47 50  0  0  0  0  0  0  0  0999 V2000
   -4.9367   17.2977   65.2416 N   0  0  0  0  0  0
   -5.8671   18.6699   64.9597 S   0  0  0  0  0  0
   -5.0258   19.8016   65.3534 O   0  0  0  0  0  0
   -6.3966   18.5237   63.6391 O   0  0  0  0  0  0
   -7.1658   18.4871   66.1581 C   0  0  0  0  0  0
   -6.8648   18.2264   67.4916 C   0  0  0  0  0  0
   -7.9166   18.0948   68.4109 C   0  0  0  0  0  0
   -9.2543   18.1962   67.9949 C   0  0  0  0  0  0
  -10.3948   17.9728   68.9674 C   0  0  0  0  0  0
  -10.7849   16.5473   69.3174 C   0  0  0  0  0  0
  -11.2066   16.2147   70.6096 C   0  0  0  0  0  0
  -11.7964   14.9765   70.8590 C   0  0  0  0  0  0
  -12.0008   14.0621   69.8189 C   0  0  0  0  0  0
  -11.5825   14.3533   68.5201 C   0  0  0  0  0  0
  -11.8460   13.5167   67.3971 N   0  0  0  0  0  0
  -11.1291   13.4579   66.2097 C   0  0  0  0  0  0
  -10.1811   14.1872   65.9165 O   0  0  0  0  0  0
  -11.4723   12.2992   65.2564 C   0  0  0  0  0  0
  -12.7070   12.7385   64.4051 C   0  0  0  0  0  0
  -13.2187   11.6672   62.9990 S   0  0  0  0  0  0
  -10.2809   11.6706   64.5271 C   0  0  0  0  0  0
   -9.8027   12.2789   63.3562 C   0  0  0  0  0  0
   -8.6822   11.9439   62.6826 N   0  0  0  0  0  0
   -7.9950   10.9056   63.1567 C   0  0  0  0  0  0
   -8.4334   10.1425   64.2184 C   0  0  0  0  0  0
   -9.5994   10.4933   64.9289 C   0  0  0  0  0  0
  -10.0585    9.5078   66.0009 C   0  0  0  0  0  0
  -10.7916   10.1216   67.2118 C   0  0  0  0  0  0
  -11.2968    9.1525   68.1728 N   0  0  0  0  0  0
  -10.4847    8.6226   69.1499 C   0  0  0  0  0  0
   -9.2987    8.9245   69.2490 O   0  0  0  0  0  0
  -11.1481    7.5645   70.0430 C   0  0  0  0  0  0
  -10.1113    6.9367   70.9957 C   0  0  0  0  0  0
   -9.7462    7.8577   72.1670 C   0  0  0  0  0  0
  -10.9730    8.4077   72.8946 C   0  0  0  0  0  0
  -11.6865    7.3613   73.5526 O   0  0  0  0  0  0
  -11.9331    9.0802   71.9171 C   0  0  0  0  0  0
  -12.3572    8.1018   70.8209 C   0  0  0  0  0  0
  -10.9378   15.5835   68.2921 C   0  0  0  0  0  0
   -9.5220   18.4288   66.6341 C   0  0  0  0  0  0
   -8.4830   18.5794   65.7183 C   0  0  0  0  0  0
   -4.4038   17.3980   66.1001 H   0  0  0  0  0  0
   -4.3676   17.0973   64.4124 H   0  0  0  0  0  0
  -12.6089   12.8574   67.5124 H   0  0  0  0  0  0
  -14.4377   12.1931   62.8008 H   0  0  0  0  0  0
  -12.2982    9.0639   68.2713 H   0  0  0  0  0  0
  -12.4241    7.7505   74.0517 H   0  0  0  0  0  0
  1  2  1  0  0  0
  1 42  1  0  0  0
  1 43  1  0  0  0
  2  3  2  0  0  0
  2  4  2  0  0  0
  2  5  1  0  0  0
  5  6  2  0  0  0
  5 41  1  0  0  0
  6  7  1  0  0  0
  7  8  2  0  0  0
  8  9  1  0  0  0
  8 40  1  0  0  0
  9 10  1  0  0  0
 10 11  2  0  0  0
 10 39  1  0  0  0
 11 12  1  0  0  0
 12 13  2  0  0  0
 13 14  1  0  0  0
 14 15  1  0  0  0
 14 39  2  0  0  0
 15 16  1  0  0  0
 15 44  1  0  0  0
 16 17  2  0  0  0
 16 18  1  0  0  0
 18 19  1  0  0  0
 18 21  1  0  0  0
 19 20  1  0  0  0
 20 45  1  0  0  0
 21 22  2  0  0  0
 21 26  1  0  0  0
 22 23  1  0  0  0
 23 24  2  0  0  0
 24 25  1  0  0  0
 25 26  2  0  0  0
 26 27  1  0  0  0
 27 28  1  0  0  0
 28 29  1  0  0  0
 29 30  1  0  0  0
 29 46  1  0  0  0
 30 31  2  0  0  0
 30 32  1  0  0  0
 32 33  1  0  0  0
 32 38  1  0  0  0
 33 34  1  0  0  0
 34 35  1  0  0  0
 35 36  1  0  0  0
 35 37  1  0  0  0
 36 47  1  0  0  0
 37 38  1  0  0  0
 40 41  2  0  0  0
M  END
>  <AUTHOR>
    GENERATED BY OPEN BABEL 2.3.2

>  <CHROM.1>
39.16580027,50.30503420,-79.35302059,143.86956431,-156.25815653,84.02224570
171.39448319,-83.16985397,164.97598256,-35.07773544,176.04675494,83.03417695
173.98197614,176.32826551,-9.84156385,13.27816960,67.23912160,-0.12487204
1.21082916,1.27250249

>  <COMPND>
    UNNAMED

>  <MASTER>
        0    0    0    0    0    0    0    0   77    0   77    0

>  <Name>
ligands/mol8.pdb

>  <RI>
1.64757e+07

>  <Rbt.Current_Directory>
/home/rochoa/Projects/OCONDOR

>  <Rbt.Executable>
rbdock ($Id: //depot/dev/client3/rdock/2013.1/src/exe/rbdock.cxx#4 $)

>  <Rbt.Library>
libRbt.so (2013.1, Build901 2013/11/27)

>  <Rbt.Parameter_File>
dock.prm

>  <Rbt.Receptor>
rdock.prm

>  <SCORE>
-18.7123

>  <SCORE.INTER>
-17.0772

>  <SCORE.INTER.CONST>
1

>  <SCORE.INTER.POLAR>
-1.96736

>  <SCORE.INTER.REPUL>
0.00498386

>  <SCORE.INTER.ROT>
13

>  <SCORE.INTER.VDW>
-28.8132

>  <SCORE.INTER.norm>
-0.416518

>  <SCORE.INTRA>
-1.63507

>  <SCORE.INTRA.DIHEDRAL>
-3.59479

>  <SCORE.INTRA.DIHEDRAL.0>
15.0264

>  <SCORE.INTRA.POLAR>
0

>  <SCORE.INTRA.POLAR.0>
0

>  <SCORE.INTRA.REPUL>
0

>  <SCORE.INTRA.REPUL.0>
0

>  <SCORE.INTRA.VDW>
0.162323

>  <SCORE.INTRA.VDW.0>
-4.74907

>  <SCORE.INTRA.norm>
-0.0398798

>  <SCORE.RESTR>
0

>  <SCORE.RESTR.CAVITY>
0

>  <SCORE.RESTR.norm>
0

>  <SCORE.SYSTEM>
0

>  <SCORE.SYSTEM.CONST>
0

>  <SCORE.SYSTEM.DIHEDRAL>
0

>  <SCORE.SYSTEM.norm>
0

>  <SCORE.heavy>
41

>  <SCORE.norm>
-0.456398

$$$$
ligands/mol8.pdb
  rDOCK(R)          3D
libRbt.so/2013.1/901 2013/11/27
 47 50  0  0  0  0  0  0  0  0999 V2000
   -6.7113    6.4498   74.3514 N   0  0  0  0  0  0
   -6.1319    8.0156   74.1501 S   0  0  0  0  0  0
   -7.1087    8.8831   74.8111 O   0  0  0  0  0  0
   -4.7527    7.9780   74.5268 O   0  0  0  0  0  0
   -6.2755    8.2386   72.3934 C   0  0  0  0  0  0
   -5.7911    7.2723   71.5168 C   0  0  0  0  0  0
   -5.9281    7.4798   70.1360 C   0  0  0  0  0  0
   -6.5187    8.6530   69.6385 C   0  0  0  0  0  0
   -6.5943    8.9195   68.1487 C   0  0  0  0  0  0
   -7.9613    9.0680   67.5037 C   0  0  0  0  0  0
   -8.1723    8.6908   66.1727 C   0  0  0  0  0  0
   -9.4677    8.5934   65.6674 C   0  0  0  0  0  0
  -10.5737    8.8428   66.4886 C   0  0  0  0  0  0
  -10.4026    9.2330   67.8171 C   0  0  0  0  0  0
  -11.4775    9.4058   68.7363 N   0  0  0  0  0  0
  -11.3910    9.8225   70.0578 C   0  0  0  0  0  0
  -10.3425   10.0404   70.6658 O   0  0  0  0  0  0
  -12.7181   10.1626   70.7595 C   0  0  0  0  0  0
  -12.9391    9.1055   71.8890 C   0  0  0  0  0  0
  -14.6378    8.8992   72.5660 S   0  0  0  0  0  0
  -12.9205   11.6408   71.1062 C   0  0  0  0  0  0
  -13.5175   11.9761   72.3313 C   0  0  0  0  0  0
  -13.6317   13.2164   72.8510 N   0  0  0  0  0  0
  -13.1715   14.2168   72.1011 C   0  0  0  0  0  0
  -12.6870   14.0303   70.8235 C   0  0  0  0  0  0
  -12.5595   12.7357   70.2799 C   0  0  0  0  0  0
  -12.1334   12.6577   68.8159 C   0  0  0  0  0  0
  -11.0944   13.7029   68.3592 C   0  0  0  0  0  0
   -9.7756   13.5513   68.9558 N   0  0  0  0  0  0
   -8.6622   14.1283   68.3882 C   0  0  0  0  0  0
   -8.7212   14.7802   67.3493 O   0  0  0  0  0  0
   -7.3367   13.8205   69.0993 C   0  0  0  0  0  0
   -6.2088   13.6107   68.0694 C   0  0  0  0  0  0
   -5.7061   14.9267   67.4622 C   0  0  0  0  0  0
   -5.3644   15.9764   68.5198 C   0  0  0  0  0  0
   -4.2442   15.5650   69.3024 O   0  0  0  0  0  0
   -6.5380   16.1975   69.4703 C   0  0  0  0  0  0
   -6.9460   14.8826   70.1361 C   0  0  0  0  0  0
   -9.0888    9.3822   68.2996 C   0  0  0  0  0  0
   -6.9684    9.6221   70.5529 C   0  0  0  0  0  0
   -6.8531    9.4153   71.9258 C   0  0  0  0  0  0
   -6.0547    5.7747   73.9713 H   0  0  0  0  0  0
   -7.6571    6.3850   73.9607 H   0  0  0  0  0  0
  -12.4066    9.2595   68.3553 H   0  0  0  0  0  0
  -14.3526    7.9810   73.5026 H   0  0  0  0  0  0
   -9.7248   13.2341   69.9134 H   0  0  0  0  0  0
   -3.9828   16.2976   69.8852 H   0  0  0  0  0  0
  1  2  1  0  0  0
  1 42  1  0  0  0
  1 43  1  0  0  0
  2  3  2  0  0  0
  2  4  2  0  0  0
  2  5  1  0  0  0
  5  6  2  0  0  0
  5 41  1  0  0  0
  6  7  1  0  0  0
  7  8  2  0  0  0
  8  9  1  0  0  0
  8 40  1  0  0  0
  9 10  1  0  0  0
 10 11  2  0  0  0
 10 39  1  0  0  0
 11 12  1  0  0  0
 12 13  2  0  0  0
 13 14  1  0  0  0
 14 15  1  0  0  0
 14 39  2  0  0  0
 15 16  1  0  0  0
 15 44  1  0  0  0
 16 17  2  0  0  0
 16 18  1  0  0  0
 18 19  1  0  0  0
 18 21  1  0  0  0
 19 20  1  0  0  0
 20 45  1  0  0  0
 21 22  2  0  0  0
 21 26  1  0  0  0
 22 23  1  0  0  0
 23 24  2  0  0  0
 24 25  1  0  0  0
 25 26  2  0  0  0
 26 27  1  0  0  0
 27 28  1  0  0  0
 28 29  1  0  0  0
 29 30  1  0  0  0
 29 46  1  0  0  0
 30 31  2  0  0  0
 30 32  1  0  0  0
 32 33  1  0  0  0
 32 38  1  0  0  0
 33 34  1  0  0  0
 34 35  1  0  0  0
 35 36  1  0  0  0
 35 37  1  0  0  0
 36 47  1  0  0  0
 37 38  1  0  0  0
 40 41  2  0  0  0
M  END
>  <AUTHOR>
    GENERATED BY OPEN BABEL 2.3.2

>  <CHROM.1>
-176.24844404,-48.68516208,118.87719015,-149.52397655,-178.25035144,113.58584149
-161.35277520,-140.46030094,-177.40254466,-146.97881503,67.11510703,160.91953289
141.27147207,172.84922722,-9.05678364,10.93019667,70.31157451,-1.33027860
0.07557940,-0.58397137

>  <COMPND>
    UNNAMED

>  <MASTER>
        0    0    0    0    0    0    0    0   77    0   77    0

>  <Name>
ligands/mol8.pdb

>  <RI>
1.64757e+07

>  <Rbt.Current_Directory>
/home/rochoa/Projects/OCONDOR

>  <Rbt.Executable>
rbdock ($Id: //depot/dev/client3/rdock/2013.1/src/exe/rbdock.cxx#4 $)

>  <Rbt.Library>
libRbt.so (2013.1, Build901 2013/11/27)

>  <Rbt.Parameter_File>
dock.prm

>  <Rbt.Receptor>
rdock.prm

>  <SCORE>
-13.6639

>  <SCORE.INTER>
-12.2407

>  <SCORE.INTER.CONST>
1

>  <SCORE.INTER.POLAR>
-2.37663

>  <SCORE.INTER.REPUL>
0.0479884

>  <SCORE.INTER.ROT>
13

>  <SCORE.INTER.VDW>
-22.8001

>  <SCORE.INTER.norm>
-0.298553

>  <SCORE.INTRA>
-1.42321

>  <SCORE.INTRA.DIHEDRAL>
-3.43573

>  <SCORE.INTRA.DIHEDRAL.0>
15.0264

>  <SCORE.INTRA.POLAR>
0

>  <SCORE.INTRA.POLAR.0>
0

>  <SCORE.INTRA.REPUL>
0

>  <SCORE.INTRA.REPUL.0>
0

>  <SCORE.INTRA.VDW>
0.294659

>  <SCORE.INTRA.VDW.0>
-4.74907

>  <SCORE.INTRA.norm>
-0.0347124

>  <SCORE.RESTR>
0

>  <SCORE.RESTR.CAVITY>
0

>  <SCORE.RESTR.norm>
0

>  <SCORE.SYSTEM>
0

>  <SCORE.SYSTEM.CONST>
0

>  <SCORE.SYSTEM.DIHEDRAL>
0

>  <SCORE.SYSTEM.norm>
0

>  <SCORE.heavy>
41

>  <SCORE.norm>
-0.333265

$$$$
ligands/mol8.pdb
  rDOCK(R)          3D
libRbt.so/2013.1/901 2013/11/27
 47 50  0  0  0  0  0  0  0  0999 V2000
   -5.0517   21.4625   71.0175 N   0  0  0  0  0  0
   -5.3008   19.9130   71.6217 S   0  0  0  0  0  0
   -3.9917   19.4629   72.0983 O   0  0  0  0  0  0
   -6.4451   20.0012   72.4753 O   0  0  0  0  0  0
   -5.7096   19.0051   70.1503 C   0  0  0  0  0  0
   -6.0549   19.6747   68.9803 C   0  0  0  0  0  0
   -6.3652   18.9243   67.8360 C   0  0  0  0  0  0
   -6.3560   17.5202   67.8705 C   0  0  0  0  0  0
   -6.7704   16.7055   66.6619 C   0  0  0  0  0  0
   -8.2274   16.3001   66.5214 C   0  0  0  0  0  0
   -9.0785   16.9740   65.6385 C   0  0  0  0  0  0
  -10.3311   16.4459   65.3299 C   0  0  0  0  0  0
  -10.7431   15.2238   65.8745 C   0  0  0  0  0  0
   -9.9271   14.5293   66.7680 C   0  0  0  0  0  0
  -10.2364   13.2370   67.2822 N   0  0  0  0  0  0
   -9.6252   12.5913   68.3485 C   0  0  0  0  0  0
   -8.6562   13.0198   68.9762 O   0  0  0  0  0  0
  -10.3069   11.3086   68.8575 C   0  0  0  0  0  0
  -11.7923   11.6635   69.1892 C   0  0  0  0  0  0
  -12.7586   10.4837   70.2192 S   0  0  0  0  0  0
  -10.0341   10.0459   68.0345 C   0  0  0  0  0  0
  -11.1211    9.2924   67.5651 C   0  0  0  0  0  0
  -11.0602    8.2496   66.7105 N   0  0  0  0  0  0
   -9.8431    7.8785   66.3157 C   0  0  0  0  0  0
   -8.6906    8.4516   66.8110 C   0  0  0  0  0  0
   -8.7501    9.5456   67.6982 C   0  0  0  0  0  0
   -7.4191   10.0157   68.2798 C   0  0  0  0  0  0
   -6.9582    9.3055   69.5696 C   0  0  0  0  0  0
   -7.8944    9.3927   70.6804 N   0  0  0  0  0  0
   -7.7863    8.5647   71.7748 C   0  0  0  0  0  0
   -6.9128    7.7062   71.8614 O   0  0  0  0  0  0
   -8.8884    8.7351   72.8300 C   0  0  0  0  0  0
  -10.2639    8.3722   72.2359 C   0  0  0  0  0  0
  -10.4724    6.8583   72.1010 C   0  0  0  0  0  0
  -10.1565    6.0984   73.3894 C   0  0  0  0  0  0
  -11.0855    6.4341   74.4194 O   0  0  0  0  0  0
   -8.7580    6.4394   73.8969 C   0  0  0  0  0  0
   -8.6190    7.9461   74.1186 C   0  0  0  0  0  0
   -8.6885   15.1006   67.1149 C   0  0  0  0  0  0
   -6.0330   16.8771   69.0787 C   0  0  0  0  0  0
   -5.7054   17.6148   70.2142 C   0  0  0  0  0  0
   -5.8993   22.0163   71.0948 H   0  0  0  0  0  0
   -4.6740   21.3992   70.0662 H   0  0  0  0  0  0
  -11.0280   12.7721   66.8496 H   0  0  0  0  0  0
  -12.9529    9.5398   69.2849 H   0  0  0  0  0  0
   -8.4638   10.2238   70.7532 H   0  0  0  0  0  0
  -10.8693    5.9209   75.2161 H   0  0  0  0  0  0
  1  2  1  0  0  0
  1 42  1  0  0  0
  1 43  1  0  0  0
  2  3  2  0  0  0
  2  4  2  0  0  0
  2  5  1  0  0  0
  5  6  2  0  0  0
  5 41  1  0  0  0
  6  7  1  0  0  0
  7  8  2  0  0  0
  8  9  1  0  0  0
  8 40  1  0  0  0
  9 10  1  0  0  0
 10 11  2  0  0  0
 10 39  1  0  0  0
 11 12  1  0  0  0
 12 13  2  0  0  0
 13 14  1  0  0  0
 14 15  1  0  0  0
 14 39  2  0  0  0
 15 16  1  0  0  0
 15 44  1  0  0  0
 16 17  2  0  0  0
 16 18  1  0  0  0
 18 19  1  0  0  0
 18 21  1  0  0  0
 19 20  1  0  0  0
 20 45  1  0  0  0
 21 22  2  0  0  0
 21 26  1  0  0  0
 22 23  1  0  0  0
 23 24  2  0  0  0
 24 25  1  0  0  0
 25 26  2  0  0  0
 26 27  1  0  0  0
 27 28  1  0  0  0
 28 29  1  0  0  0
 29 30  1  0  0  0
 29 46  1  0  0  0
 30 31  2  0  0  0
 30 32  1  0  0  0
 32 33  1  0  0  0
 32 38  1  0  0  0
 33 34  1  0  0  0
 34 35  1  0  0  0
 35 36  1  0  0  0
 35 37  1  0  0  0
 36 47  1  0  0  0
 37 38  1  0  0  0
 40 41  2  0  0  0
M  END
>  <AUTHOR>
    GENERATED BY OPEN BABEL 2.3.2

>  <CHROM.1>
-151.82963411,-15.06831407,-90.82195085,102.61527845,-166.83479639,-54.45834374
-164.39387957,-126.65204413,-74.40599862,88.15072221,-57.86748887,164.45804950
63.19257496,178.76048335,-8.52793657,12.89343079,69.62363920,-0.90945619
1.02654705,2.42858077

>  <COMPND>
    UNNAMED

>  <MASTER>
        0    0    0    0    0    0    0    0   77    0   77    0

>  <Name>
ligands/mol8.pdb

>  <RI>
1.64757e+07

>  <Rbt.Current_Directory>
/home/rochoa/Projects/OCONDOR

>  <Rbt.Executable>
rbdock ($Id: //depot/dev/client3/rdock/2013.1/src/exe/rbdock.cxx#4 $)

>  <Rbt.Library>
libRbt.so (2013.1, Build901 2013/11/27)

>  <Rbt.Parameter_File>
dock.prm

>  <Rbt.Receptor>
rdock.prm

>  <SCORE>
-12.6708

>  <SCORE.INTER>
-9.84229

>  <SCORE.INTER.CONST>
1

>  <SCORE.INTER.POLAR>
-1.21573

>  <SCORE.INTER.REPUL>
0.137384

>  <SCORE.INTER.ROT>
13

>  <SCORE.INTER.VDW>
-24.7957

>  <SCORE.INTER.norm>
-0.240056

>  <SCORE.INTRA>
-2.83405

>  <SCORE.INTRA.DIHEDRAL>
-5.32729

>  <SCORE.INTRA.DIHEDRAL.0>
15.0264

>  <SCORE.INTRA.POLAR>
0

>  <SCORE.INTRA.POLAR.0>
0

>  <SCORE.INTRA.REPUL>
0

>  <SCORE.INTRA.REPUL.0>
0

>  <SCORE.INTRA.VDW>
-0.170408

>  <SCORE.INTRA.VDW.0>
-4.74907

>  <SCORE.INTRA.norm>
-0.0691232

>  <SCORE.RESTR>
0.00559776

>  <SCORE.RESTR.CAVITY>
0.00559776

>  <SCORE.RESTR.norm>
0.000136531

>  <SCORE.SYSTEM>
0

>  <SCORE.SYSTEM.CONST>
0

>  <SCORE.SYSTEM.DIHEDRAL>
0

>  <SCORE.SYSTEM.norm>
0

>  <SCORE.heavy>
41

>  <SCORE.norm>
-0.309043

$$$$
ligands/mol8.pdb
  rDOCK(R)          3D
libRbt.so/2013.1/901 2013/11/27
 47 50  0  0  0  0  0  0  0  0999 V2000
   -6.3555    7.1358   75.7056 N   0  0  0  0  0  0
   -7.8189    7.5037   76.4481 S   0  0  0  0  0  0
   -8.0702    6.4066   77.3843 O   0  0  0  0  0  0
   -7.7178    8.8679   76.8659 O   0  0  0  0  0  0
   -8.9629    7.3662   75.0959 C   0  0  0  0  0  0
   -8.8769    8.2291   74.0074 C   0  0  0  0  0  0
   -9.7937    8.0862   72.9549 C   0  0  0  0  0  0
  -10.8011    7.1088   73.0042 C   0  0  0  0  0  0
  -11.8439    7.0044   71.9096 C   0  0  0  0  0  0
  -11.3788    6.9180   70.4664 C   0  0  0  0  0  0
  -11.5995    5.7624   69.7087 C   0  0  0  0  0  0
  -11.3999    5.7784   68.3291 C   0  0  0  0  0  0
  -11.0047    6.9540   67.6799 C   0  0  0  0  0  0
  -10.7632    8.1223   68.4033 C   0  0  0  0  0  0
  -10.4568    9.3771   67.8017 N   0  0  0  0  0  0
  -10.2215    9.6259   66.4563 C   0  0  0  0  0  0
  -10.1711    8.7679   65.5744 O   0  0  0  0  0  0
  -10.1550   11.1040   66.0321 C   0  0  0  0  0  0
   -8.6573   11.4455   65.7445 C   0  0  0  0  0  0
   -7.8117   10.5583   64.3718 S   0  0  0  0  0  0
  -11.2042   11.5433   65.0063 C   0  0  0  0  0  0
  -11.1417   11.0229   63.7044 C   0  0  0  0  0  0
  -12.0643   11.1878   62.7333 N   0  0  0  0  0  0
  -13.1090   11.9578   63.0343 C   0  0  0  0  0  0
  -13.2173   12.6344   64.2311 C   0  0  0  0  0  0
  -12.2595   12.4591   65.2506 C   0  0  0  0  0  0
  -12.4107   13.3527   66.4793 C   0  0  0  0  0  0
  -12.1363   14.8548   66.2587 C   0  0  0  0  0  0
  -10.7895   15.1674   65.8045 N   0  0  0  0  0  0
   -9.7176   15.1376   66.6677 C   0  0  0  0  0  0
   -9.8443   14.8653   67.8583 O   0  0  0  0  0  0
   -8.3752   15.5565   66.0516 C   0  0  0  0  0  0
   -8.3790   17.0632   65.7248 C   0  0  0  0  0  0
   -8.2084   17.9419   66.9707 C   0  0  0  0  0  0
   -7.0220   17.5195   67.8373 C   0  0  0  0  0  0
   -5.7887   17.7352   67.1523 O   0  0  0  0  0  0
   -7.1030   16.0369   68.1908 C   0  0  0  0  0  0
   -7.1677   15.1845   66.9229 C   0  0  0  0  0  0
  -10.9140    8.0782   69.8020 C   0  0  0  0  0  0
  -10.8775    6.2750   74.1340 C   0  0  0  0  0  0
   -9.9595    6.3980   75.1747 C   0  0  0  0  0  0
   -5.6113    7.0754   76.3939 H   0  0  0  0  0  0
   -6.1793    7.8077   74.9512 H   0  0  0  0  0  0
  -10.4704   10.1766   68.4266 H   0  0  0  0  0  0
   -6.5650   10.9943   64.6111 H   0  0  0  0  0  0
  -10.6137   15.1606   64.8098 H   0  0  0  0  0  0
   -5.6627   18.6907   67.0267 H   0  0  0  0  0  0
  1  2  1  0  0  0
  1 42  1  0  0  0
  1 43  1  0  0  0
  2  3  2  0  0  0
  2  4  2  0  0  0
  2  5  1  0  0  0
  5  6  2  0  0  0
  5 41  1  0  0  0
  6  7  1  0  0  0
  7  8  2  0  0  0
  8  9  1  0  0  0
  8 40  1  0  0  0
  9 10  1  0  0  0
 10 11  2  0  0  0
 10 39  1  0  0  0
 11 12  1  0  0  0
 12 13  2  0  0  0
 13 14  1  0  0  0
 14 15  1  0  0  0
 14 39  2  0  0  0
 15 16  1  0  0  0
 15 44  1  0  0  0
 16 17  2  0  0  0
 16 18  1  0  0  0
 18 19  1  0  0  0
 18 21  1  0  0  0
 19 20  1  0  0  0
 20 45  1  0  0  0
 21 22  2  0  0  0
 21 26  1  0  0  0
 22 23  1  0  0  0
 23 24  2  0  0  0
 24 25  1  0  0  0
 25 26  2  0  0  0
 26 27  1  0  0  0
 27 28  1  0  0  0
 28 29  1  0  0  0
 29 30  1  0  0  0
 29 46  1  0  0  0
 30 31  2  0  0  0
 30 32  1  0  0  0
 32 33  1  0  0  0
 32 38  1  0  0  0
 33 34  1  0  0  0
 34 35  1  0  0  0
 35 36  1  0  0  0
 35 37  1  0  0  0
 36 47  1  0  0  0
 37 38  1  0  0  0
 40 41  2  0  0  0
M  END
>  <AUTHOR>
    GENERATED BY OPEN BABEL 2.3.2

>  <CHROM.1>
-60.33952247,-64.05878699,52.17457283,114.33545193,-6.71078686,106.69833339
63.10444629,-67.12306820,-171.48518319,107.11224396,-60.68348858,-75.83220290
69.02186754,66.01498686,-9.67989979,10.79507574,68.89618029,-1.46864556,-1.00884258
-0.82534490

>  <COMPND>
    UNNAMED

>  <MASTER>
        0    0    0    0    0    0    0    0   77    0   77    0

>  <Name>
ligands/mol8.pdb

>  <RI>
1.64757e+07

>  <Rbt.Current_Directory>
/home/rochoa/Projects/OCONDOR

>  <Rbt.Executable>
rbdock ($Id: //depot/dev/client3/rdock/2013.1/src/exe/rbdock.cxx#4 $)

>  <Rbt.Library>
libRbt.so (2013.1, Build901 2013/11/27)

>  <Rbt.Parameter_File>
dock.prm

>  <Rbt.Receptor>
rdock.prm

>  <SCORE>
-14.0429

>  <SCORE.INTER>
-9.63835

>  <SCORE.INTER.CONST>
1

>  <SCORE.INTER.POLAR>
0

>  <SCORE.INTER.REPUL>
0.00644941

>  <SCORE.INTER.ROT>
13

>  <SCORE.INTER.VDW>
-28.0706

>  <SCORE.INTER.norm>
-0.235082

>  <SCORE.INTRA>
-4.40451

>  <SCORE.INTRA.DIHEDRAL>
-6.04229

>  <SCORE.INTRA.DIHEDRAL.0>
15.0264

>  <SCORE.INTRA.POLAR>
0

>  <SCORE.INTRA.POLAR.0>
0

>  <SCORE.INTRA.REPUL>
0

>  <SCORE.INTRA.REPUL.0>
0

>  <SCORE.INTRA.VDW>
-1.38336

>  <SCORE.INTRA.VDW.0>
-4.74907

>  <SCORE.INTRA.norm>
-0.107427

>  <SCORE.RESTR>
0

>  <SCORE.RESTR.CAVITY>
0

>  <SCORE.RESTR.norm>
0

>  <SCORE.SYSTEM>
0

>  <SCORE.SYSTEM.CONST>
0

>  <SCORE.SYSTEM.DIHEDRAL>
0

>  <SCORE.SYSTEM.norm>
0

>  <SCORE.heavy>
41

>  <SCORE.norm>
-0.342509

$$$$
ligands/mol8.pdb
  rDOCK(R)          3D
libRbt.so/2013.1/901 2013/11/27
 47 50  0  0  0  0  0  0  0  0999 V2000
   -9.3701    2.1150   73.4418 N   0  0  0  0  0  0
  -10.6490    2.5174   72.4266 S   0  0  0  0  0  0
  -10.2251    2.1161   71.0840 O   0  0  0  0  0  0
  -11.8271    2.0004   73.0515 O   0  0  0  0  0  0
  -10.6445    4.2919   72.5139 C   0  0  0  0  0  0
  -11.3993    4.9535   73.4779 C   0  0  0  0  0  0
  -11.3658    6.3556   73.5206 C   0  0  0  0  0  0
  -10.6070    7.0870   72.5923 C   0  0  0  0  0  0
  -10.6327    8.6021   72.5818 C   0  0  0  0  0  0
  -11.1757    9.3129   71.3543 C   0  0  0  0  0  0
  -12.5407    9.2762   71.0482 C   0  0  0  0  0  0
  -13.0655   10.1265   70.0762 C   0  0  0  0  0  0
  -12.2431   11.0462   69.4146 C   0  0  0  0  0  0
  -10.8754   11.1035   69.6842 C   0  0  0  0  0  0
   -9.9983   12.0774   69.1251 N   0  0  0  0  0  0
  -10.0755   12.6472   67.8615 C   0  0  0  0  0  0
  -10.8894   12.3359   66.9914 O   0  0  0  0  0  0
   -9.1541   13.8505   67.5927 C   0  0  0  0  0  0
   -7.7292   13.2922   67.2760 C   0  0  0  0  0  0
   -6.8497   12.3564   68.5940 S   0  0  0  0  0  0
   -9.7287   14.9270   66.6668 C   0  0  0  0  0  0
   -9.6477   14.7428   65.2778 C   0  0  0  0  0  0
  -10.2303   15.5127   64.3348 N   0  0  0  0  0  0
  -10.9075   16.5733   64.7724 C   0  0  0  0  0  0
  -10.9469   16.9371   66.1021 C   0  0  0  0  0  0
  -10.3458   16.1317   67.0907 C   0  0  0  0  0  0
  -10.3412   16.6957   68.5095 C   0  0  0  0  0  0
   -9.7542   18.1135   68.6698 C   0  0  0  0  0  0
   -8.4082   18.2785   68.1414 N   0  0  0  0  0  0
   -7.5148   19.1529   68.7176 C   0  0  0  0  0  0
   -7.8106   19.8452   69.6876 O   0  0  0  0  0  0
   -6.1598   19.2618   68.0039 C   0  0  0  0  0  0
   -6.3412   19.8489   66.5900 C   0  0  0  0  0  0
   -6.5825   21.3639   66.6020 C   0  0  0  0  0  0
   -5.5521   22.1226   67.4385 C   0  0  0  0  0  0
   -4.2546   22.0346   66.8508 O   0  0  0  0  0  0
   -5.4621   21.5474   68.8494 C   0  0  0  0  0  0
   -5.1184   20.0581   68.8020 C   0  0  0  0  0  0
  -10.3479   10.2014   70.6271 C   0  0  0  0  0  0
   -9.8815    6.3863   71.6124 C   0  0  0  0  0  0
   -9.8945    4.9937   71.5748 C   0  0  0  0  0  0
   -9.1969    1.1147   73.4182 H   0  0  0  0  0  0
   -9.5496    2.4905   74.3790 H   0  0  0  0  0  0
   -9.2767   12.4251   69.7482 H   0  0  0  0  0  0
   -5.6470   12.2902   68.0016 H   0  0  0  0  0  0
   -8.0589   17.5705   67.5113 H   0  0  0  0  0  0
   -3.6532   22.6310   67.3277 H   0  0  0  0  0  0
  1  2  1  0  0  0
  1 42  1  0  0  0
  1 43  1  0  0  0
  2  3  2  0  0  0
  2  4  2  0  0  0
  2  5  1  0  0  0
  5  6  2  0  0  0
  5 41  1  0  0  0
  6  7  1  0  0  0
  7  8  2  0  0  0
  8  9  1  0  0  0
  8 40  1  0  0  0
  9 10  1  0  0  0
 10 11  2  0  0  0
 10 39  1  0  0  0
 11 12  1  0  0  0
 12 13  2  0  0  0
 13 14  1  0  0  0
 14 15  1  0  0  0
 14 39  2  0  0  0
 15 16  1  0  0  0
 15 44  1  0  0  0
 16 17  2  0  0  0
 16 18  1  0  0  0
 18 19  1  0  0  0
 18 21  1  0  0  0
 19 20  1  0  0  0
 20 45  1  0  0  0
 21 22  2  0  0  0
 21 26  1  0  0  0
 22 23  1  0  0  0
 23 24  2  0  0  0
 24 25  1  0  0  0
 25 26  2  0  0  0
 26 27  1  0  0  0
 27 28  1  0  0  0
 28 29  1  0  0  0
 29 30  1  0  0  0
 29 46  1  0  0  0
 30 31  2  0  0  0
 30 32  1  0  0  0
 32 33  1  0  0  0
 32 38  1  0  0  0
 33 34  1  0  0  0
 34 35  1  0  0  0
 35 36  1  0  0  0
 35 37  1  0  0  0
 36 47  1  0  0  0
 37 38  1  0  0  0
 40 41  2  0  0  0
M  END
>  <AUTHOR>
    GENERATED BY OPEN BABEL 2.3.2

>  <CHROM.1>
-61.17993376,-90.19422277,-116.65620500,70.26107875,-34.11806054,80.02875854
-63.18084705,-82.45547983,-169.75179373,122.30746854,-54.39350976,-147.82259757
64.43769166,171.66570639,-9.32352382,12.42905272,69.31444692,-1.84944764
-0.62963226,-0.48415683

>  <COMPND>
    UNNAMED

>  <MASTER>
        0    0    0    0    0    0    0    0   77    0   77    0

>  <Name>
ligands/mol8.pdb

>  <RI>
1.64757e+07

>  <Rbt.Current_Directory>
/home/rochoa/Projects/OCONDOR

>  <Rbt.Executable>
rbdock ($Id: //depot/dev/client3/rdock/2013.1/src/exe/rbdock.cxx#4 $)

>  <Rbt.Library>
libRbt.so (2013.1, Build901 2013/11/27)

>  <Rbt.Parameter_File>
dock.prm

>  <Rbt.Receptor>
rdock.prm

>  <SCORE>
-8.43785

>  <SCORE.INTER>
-6.99155

>  <SCORE.INTER.CONST>
1

>  <SCORE.INTER.POLAR>
-0.756166

>  <SCORE.INTER.REPUL>
0.115441

>  <SCORE.INTER.ROT>
13

>  <SCORE.INTER.VDW>
-23.3978

>  <SCORE.INTER.norm>
-0.170526

>  <SCORE.INTRA>
-1.44629

>  <SCORE.INTRA.DIHEDRAL>
-2.36745

>  <SCORE.INTRA.DIHEDRAL.0>
15.0264

>  <SCORE.INTRA.POLAR>
0

>  <SCORE.INTRA.POLAR.0>
0

>  <SCORE.INTRA.REPUL>
0

>  <SCORE.INTRA.REPUL.0>
0

>  <SCORE.INTRA.VDW>
-0.262569

>  <SCORE.INTRA.VDW.0>
-4.74907

>  <SCORE.INTRA.norm>
-0.0352754

>  <SCORE.RESTR>
0

>  <SCORE.RESTR.CAVITY>
0

>  <SCORE.RESTR.norm>
0

>  <SCORE.SYSTEM>
0

>  <SCORE.SYSTEM.CONST>
0

>  <SCORE.SYSTEM.DIHEDRAL>
0

>  <SCORE.SYSTEM.norm>
0

>  <SCORE.heavy>
41

>  <SCORE.norm>
-0.205801

$$$$
ligands/mol8.pdb
  rDOCK(R)          3D
libRbt.so/2013.1/901 2013/11/27
 47 50  0  0  0  0  0  0  0  0999 V2000
  -11.2503   17.0707   64.6542 N   0  0  0  0  0  0
  -10.4949   17.7759   65.9809 S   0  0  0  0  0  0
   -9.9076   19.0207   65.4818 O   0  0  0  0  0  0
  -11.4521   17.7448   67.0431 O   0  0  0  0  0  0
   -9.1827   16.6250   66.3125 C   0  0  0  0  0  0
   -9.4183   15.2540   66.2710 C   0  0  0  0  0  0
   -8.3560   14.3753   66.5319 C   0  0  0  0  0  0
   -7.0799   14.8637   66.8570 C   0  0  0  0  0  0
   -5.9508   13.9207   67.2205 C   0  0  0  0  0  0
   -6.1848   12.8907   68.3119 C   0  0  0  0  0  0
   -5.6670   13.0773   69.5985 C   0  0  0  0  0  0
   -6.0899   12.2659   70.6501 C   0  0  0  0  0  0
   -7.0564   11.2749   70.4415 C   0  0  0  0  0  0
   -7.5865   11.0513   69.1705 C   0  0  0  0  0  0
   -8.6417   10.1318   68.9033 N   0  0  0  0  0  0
   -9.5614    9.6250   69.8114 C   0  0  0  0  0  0
   -9.5569    9.8447   71.0231 O   0  0  0  0  0  0
  -10.7481    8.8411   69.2229 C   0  0  0  0  0  0
  -11.4913    9.7880   68.2263 C   0  0  0  0  0  0
  -12.0602   11.4256   68.8435 S   0  0  0  0  0  0
  -10.4326    7.4146   68.7626 C   0  0  0  0  0  0
  -11.4457    6.6566   68.1552 C   0  0  0  0  0  0
  -11.2967    5.4526   67.5640 N   0  0  0  0  0  0
  -10.0763    4.9198   67.6060 C   0  0  0  0  0  0
   -9.0304    5.5030   68.2900 C   0  0  0  0  0  0
   -9.1801    6.7638   68.9027 C   0  0  0  0  0  0
   -7.9990    7.2527   69.7376 C   0  0  0  0  0  0
   -8.2053    7.2460   71.2666 C   0  0  0  0  0  0
   -7.4285    8.2416   71.9901 N   0  0  0  0  0  0
   -6.1028    8.0319   72.2959 C   0  0  0  0  0  0
   -5.5177    6.9961   71.9921 O   0  0  0  0  0  0
   -5.4418    9.1461   73.1197 C   0  0  0  0  0  0
   -6.1161    9.2677   74.5007 C   0  0  0  0  0  0
   -5.6973    8.1520   75.4668 C   0  0  0  0  0  0
   -4.1807    7.9798   75.5533 C   0  0  0  0  0  0
   -3.5708    9.1268   76.1441 O   0  0  0  0  0  0
   -3.5713    7.7930   74.1664 C   0  0  0  0  0  0
   -3.9232    8.9740   73.2609 C   0  0  0  0  0  0
   -7.1102   11.8396   68.1062 C   0  0  0  0  0  0
   -6.8860   16.2551   66.9206 C   0  0  0  0  0  0
   -7.9307   17.1343   66.6445 C   0  0  0  0  0  0
  -10.5794   16.8975   63.9118 H   0  0  0  0  0  0
  -12.0509   17.6467   64.3737 H   0  0  0  0  0  0
   -8.7578    9.8703   67.9296 H   0  0  0  0  0  0
  -12.8321   10.9853   69.8495 H   0  0  0  0  0  0
   -7.7978    9.1802   72.0437 H   0  0  0  0  0  0
   -3.8385    9.9165   75.6447 H   0  0  0  0  0  0
  1  2  1  0  0  0
  1 42  1  0  0  0
  1 43  1  0  0  0
  2  3  2  0  0  0
  2  4  2  0  0  0
  2  5  1  0  0  0
  5  6  2  0  0  0
  5 41  1  0  0  0
  6  7  1  0  0  0
  7  8  2  0  0  0
  8  9  1  0  0  0
  8 40  1  0  0  0
  9 10  1  0  0  0
 10 11  2  0  0  0
 10 39  1  0  0  0
 11 12  1  0  0  0
 12 13  2  0  0  0
 13 14  1  0  0  0
 14 15  1  0  0  0
 14 39  2  0  0  0
 15 16  1  0  0  0
 15 44  1  0  0  0
 16 17  2  0  0  0
 16 18  1  0  0  0
 18 19  1  0  0  0
 18 21  1  0  0  0
 19 20  1  0  0  0
 20 45  1  0  0  0
 21 22  2  0  0  0
 21 26  1  0  0  0
 22 23  1  0  0  0
 23 24  2  0  0  0
 24 25  1  0  0  0
 25 26  2  0  0  0
 26 27  1  0  0  0
 27 28  1  0  0  0
 28 29  1  0  0  0
 29 30  1  0  0  0
 29 46  1  0  0  0
 30 31  2  0  0  0
 30 32  1  0  0  0
 32 33  1  0  0  0
 32 38  1  0  0  0
 33 34  1  0  0  0
 34 35  1  0  0  0
 35 36  1  0  0  0
 35 37  1  0  0  0
 36 47  1  0  0  0
 37 38  1  0  0  0
 40 41  2  0  0  0
M  END
>  <AUTHOR>
    GENERATED BY OPEN BABEL 2.3.2

>  <CHROM.1>
59.09639056,-42.85468587,-52.55097866,-102.82412750,20.48147020,-57.51675260
-54.68528515,-176.96104343,-57.58506149,67.64064120,-151.94840496,-80.68359253
63.24463866,-54.85440562,-8.23173645,11.16553690,69.44641919,1.96807319,-0.71214846
-0.35156942

>  <COMPND>
    UNNAMED

>  <MASTER>
        0    0    0    0    0    0    0    0   77    0   77    0

>  <Name>
ligands/mol8.pdb

>  <RI>
1.64757e+07

>  <Rbt.Current_Directory>
/home/rochoa/Projects/OCONDOR

>  <Rbt.Executable>
rbdock ($Id: //depot/dev/client3/rdock/2013.1/src/exe/rbdock.cxx#4 $)

>  <Rbt.Library>
libRbt.so (2013.1, Build901 2013/11/27)

>  <Rbt.Parameter_File>
dock.prm

>  <Rbt.Receptor>
rdock.prm

>  <SCORE>
-7.16721

>  <SCORE.INTER>
-4.55296

>  <SCORE.INTER.CONST>
1

>  <SCORE.INTER.POLAR>
-1.53813

>  <SCORE.INTER.REPUL>
0.140162

>  <SCORE.INTER.ROT>
13

>  <SCORE.INTER.VDW>
-18.4241

>  <SCORE.INTER.norm>
-0.111048

>  <SCORE.INTRA>
-2.61425

>  <SCORE.INTRA.DIHEDRAL>
-3.88326

>  <SCORE.INTRA.DIHEDRAL.0>
15.0264

>  <SCORE.INTRA.POLAR>
-0.0888325

>  <SCORE.INTRA.POLAR.0>
0

>  <SCORE.INTRA.REPUL>
0

>  <SCORE.INTRA.REPUL.0>
0

>  <SCORE.INTRA.VDW>
-0.370589

>  <SCORE.INTRA.VDW.0>
-4.74907

>  <SCORE.INTRA.norm>
-0.0637622

>  <SCORE.RESTR>
0

>  <SCORE.RESTR.CAVITY>
0

>  <SCORE.RESTR.norm>
0

>  <SCORE.SYSTEM>
0

>  <SCORE.SYSTEM.CONST>
0

>  <SCORE.SYSTEM.DIHEDRAL>
0

>  <SCORE.SYSTEM.norm>
0

>  <SCORE.heavy>
41

>  <SCORE.norm>
-0.17481

$$$$
ligands/mol8.pdb
  rDOCK(R)          3D
libRbt.so/2013.1/901 2013/11/27
 47 50  0  0  0  0  0  0  0  0999 V2000
  -11.5462   11.0421   63.5785 N   0  0  0  0  0  0
  -12.3018   12.5435   63.6330 S   0  0  0  0  0  0
  -12.0674   13.1483   62.3204 O   0  0  0  0  0  0
  -13.6138   12.3069   64.1511 O   0  0  0  0  0  0
  -11.3204   13.4064   64.8365 C   0  0  0  0  0  0
  -11.5019   13.1710   66.1960 C   0  0  0  0  0  0
  -10.7039   13.8663   67.1170 C   0  0  0  0  0  0
   -9.7543   14.8058   66.6829 C   0  0  0  0  0  0
   -8.9484   15.6192   67.6756 C   0  0  0  0  0  0
   -7.9243   14.9055   68.5409 C   0  0  0  0  0  0
   -7.1083   15.6201   69.4251 C   0  0  0  0  0  0
   -6.3565   14.9468   70.3867 C   0  0  0  0  0  0
   -6.4284   13.5534   70.5004 C   0  0  0  0  0  0
   -7.2212   12.8061   69.6289 C   0  0  0  0  0  0
   -7.4205   11.4003   69.7480 N   0  0  0  0  0  0
   -6.8804   10.5560   70.7086 C   0  0  0  0  0  0
   -6.0741   10.8926   71.5765 O   0  0  0  0  0  0
   -7.4457    9.1254   70.7625 C   0  0  0  0  0  0
   -6.5115    8.2161   69.9008 C   0  0  0  0  0  0
   -4.7697    7.9908   70.4506 S   0  0  0  0  0  0
   -7.8517    8.6289   72.1535 C   0  0  0  0  0  0
   -6.8537    8.4132   73.1164 C   0  0  0  0  0  0
   -7.0508    8.1241   74.4198 N   0  0  0  0  0  0
   -8.3171    7.9874   74.8106 C   0  0  0  0  0  0
   -9.3791    8.0411   73.9326 C   0  0  0  0  0  0
   -9.1780    8.3500   72.5718 C   0  0  0  0  0  0
  -10.4065    8.2564   71.6701 C   0  0  0  0  0  0
  -10.3901    7.1229   70.6235 C   0  0  0  0  0  0
  -10.1086    5.8007   71.1624 N   0  0  0  0  0  0
  -10.0394    4.6944   70.3461 C   0  0  0  0  0  0
  -10.2271    4.7630   69.1347 O   0  0  0  0  0  0
   -9.8010    3.3637   71.0739 C   0  0  0  0  0  0
   -9.6529    2.2132   70.0583 C   0  0  0  0  0  0
   -8.2853    2.2064   69.3633 C   0  0  0  0  0  0
   -7.1186    2.2910   70.3476 C   0  0  0  0  0  0
   -7.0463    1.1158   71.1539 O   0  0  0  0  0  0
   -7.2778    3.4864   71.2833 C   0  0  0  0  0  0
   -8.6063    3.4066   72.0364 C   0  0  0  0  0  0
   -7.9318   13.4927   68.6265 C   0  0  0  0  0  0
   -9.6200   15.0412   65.3030 C   0  0  0  0  0  0
  -10.3954   14.3413   64.3812 C   0  0  0  0  0  0
  -10.5505   11.1496   63.4106 H   0  0  0  0  0  0
  -12.0271   10.4447   62.8977 H   0  0  0  0  0  0
   -8.0746   10.9938   69.0871 H   0  0  0  0  0  0
   -5.0201    7.3183   71.5849 H   0  0  0  0  0  0
   -9.7212    5.7435   72.0935 H   0  0  0  0  0  0
   -7.8834    1.0152   71.6374 H   0  0  0  0  0  0
  1  2  1  0  0  0
  1 42  1  0  0  0
  1 43  1  0  0  0
  2  3  2  0  0  0
  2  4  2  0  0  0
  2  5  1  0  0  0
  5  6  2  0  0  0
  5 41  1  0  0  0
  6  7  1  0  0  0
  7  8  2  0  0  0
  8  9  1  0  0  0
  8 40  1  0  0  0
  9 10  1  0  0  0
 10 11  2  0  0  0
 10 39  1  0  0  0
 11 12  1  0  0  0
 12 13  2  0  0  0
 13 14  1  0  0  0
 14 15  1  0  0  0
 14 39  2  0  0  0
 15 16  1  0  0  0
 15 44  1  0  0  0
 16 17  2  0  0  0
 16 18  1  0  0  0
 18 19  1  0  0  0
 18 21  1  0  0  0
 19 20  1  0  0  0
 20 45  1  0  0  0
 21 22  2  0  0  0
 21 26  1  0  0  0
 22 23  1  0  0  0
 23 24  2  0  0  0
 24 25  1  0  0  0
 25 26  2  0  0  0
 26 27  1  0  0  0
 27 28  1  0  0  0
 28 29  1  0  0  0
 29 30  1  0  0  0
 29 46  1  0  0  0
 30 31  2  0  0  0
 30 32  1  0  0  0
 32 33  1  0  0  0
 32 38  1  0  0  0
 33 34  1  0  0  0
 34 35  1  0  0  0
 35 36  1  0  0  0
 35 37  1  0  0  0
 36 47  1  0  0  0
 37 38  1  0  0  0
 40 41  2  0  0  0
M  END
>  <AUTHOR>
    GENERATED BY OPEN BABEL 2.3.2

>  <CHROM.1>
60.57969004,-78.63992516,67.95986697,176.79672503,-0.26881100,94.71480312
64.17595418,-67.44929372,66.31270166,63.53469091,52.12825022,-178.92220449
-176.42251732,-58.80536310,-8.82432174,9.47299979,69.21060850,1.92943677
-0.91973088,-0.27931970

>  <COMPND>
    UNNAMED

>  <MASTER>
        0    0    0    0    0    0    0    0   77    0   77    0

>  <Name>
ligands/mol8.pdb

>  <RI>
1.64757e+07

>  <Rbt.Current_Directory>
/home/rochoa/Projects/OCONDOR

>  <Rbt.Executable>
rbdock ($Id: //depot/dev/client3/rdock/2013.1/src/exe/rbdock.cxx#4 $)

>  <Rbt.Library>
libRbt.so (2013.1, Build901 2013/11/27)

>  <Rbt.Parameter_File>
dock.prm

>  <Rbt.Receptor>
rdock.prm

>  <SCORE>
-4.27041

>  <SCORE.INTER>
-1.31707

>  <SCORE.INTER.CONST>
1

>  <SCORE.INTER.POLAR>
0

>  <SCORE.INTER.REPUL>
0.0871257

>  <SCORE.INTER.ROT>
13

>  <SCORE.INTER.VDW>
-20.1527

>  <SCORE.INTER.norm>
-0.0321237

>  <SCORE.INTRA>
-2.95333

>  <SCORE.INTRA.DIHEDRAL>
-6.51769

>  <SCORE.INTRA.DIHEDRAL.0>
15.0264

>  <SCORE.INTRA.POLAR>
0

>  <SCORE.INTRA.POLAR.0>
0

>  <SCORE.INTRA.REPUL>
0

>  <SCORE.INTRA.REPUL.0>
0

>  <SCORE.INTRA.VDW>
0.30551

>  <SCORE.INTRA.VDW.0>
-4.74907

>  <SCORE.INTRA.norm>
-0.0720326

>  <SCORE.RESTR>
0

>  <SCORE.RESTR.CAVITY>
0

>  <SCORE.RESTR.norm>
0

>  <SCORE.SYSTEM>
0

>  <SCORE.SYSTEM.CONST>
0

>  <SCORE.SYSTEM.DIHEDRAL>
0

>  <SCORE.SYSTEM.norm>
0

>  <SCORE.heavy>
41

>  <SCORE.norm>
-0.104156

$$$$
ligands/mol8.pdb
  rDOCK(R)          3D
libRbt.so/2013.1/901 2013/11/27
 47 50  0  0  0  0  0  0  0  0999 V2000
   -8.1350    2.8762   70.6111 N   0  0  0  0  0  0
   -9.7522    3.2354   70.3218 S   0  0  0  0  0  0
   -9.9564    2.9995   68.8914 O   0  0  0  0  0  0
  -10.4963    2.5484   71.3318 O   0  0  0  0  0  0
   -9.7996    4.9864   70.6184 C   0  0  0  0  0  0
  -10.7198    5.7909   69.9531 C   0  0  0  0  0  0
  -10.7321    7.1687   70.2178 C   0  0  0  0  0  0
   -9.8160    7.7380   71.1175 C   0  0  0  0  0  0
   -9.7703    9.2355   71.3444 C   0  0  0  0  0  0
  -10.8359   10.1031   70.6974 C   0  0  0  0  0  0
  -11.9645   10.5111   71.4172 C   0  0  0  0  0  0
  -12.8031   11.5007   70.9067 C   0  0  0  0  0  0
  -12.5140   12.1189   69.6844 C   0  0  0  0  0  0
  -11.4048   11.7302   68.9327 C   0  0  0  0  0  0
  -10.9938   12.3805   67.7333 N   0  0  0  0  0  0
  -11.0377   13.7410   67.4606 C   0  0  0  0  0  0
  -11.5154   14.5986   68.2042 O   0  0  0  0  0  0
  -10.3086   14.2111   66.1892 C   0  0  0  0  0  0
  -11.3529   14.9516   65.2928 C   0  0  0  0  0  0
  -12.9534   14.1114   64.9481 S   0  0  0  0  0  0
   -8.9506   14.8817   66.4177 C   0  0  0  0  0  0
   -8.7609   16.2005   65.9765 C   0  0  0  0  0  0
   -7.6888   16.9805   66.2289 N   0  0  0  0  0  0
   -6.7009   16.4210   66.9260 C   0  0  0  0  0  0
   -6.7096   15.0934   67.2991 C   0  0  0  0  0  0
   -7.8304   14.2773   67.0436 C   0  0  0  0  0  0
   -7.6790   12.7969   67.3851 C   0  0  0  0  0  0
   -7.9625   11.8073   66.2359 C   0  0  0  0  0  0
   -8.0827   10.4162   66.6462 N   0  0  0  0  0  0
   -6.9765    9.6048   66.7598 C   0  0  0  0  0  0
   -5.8436   10.0047   66.5064 O   0  0  0  0  0  0
   -7.2758    8.1471   67.1375 C   0  0  0  0  0  0
   -6.0224    7.2713   66.9407 C   0  0  0  0  0  0
   -4.9829    7.4629   68.0524 C   0  0  0  0  0  0
   -5.5831    7.3442   69.4534 C   0  0  0  0  0  0
   -6.0391    6.0148   69.7011 O   0  0  0  0  0  0
   -6.7758    8.2821   69.6189 C   0  0  0  0  0  0
   -7.8381    7.9936   68.5574 C   0  0  0  0  0  0
  -10.5975   10.6912   69.4322 C   0  0  0  0  0  0
   -8.8796    6.8994   71.7479 C   0  0  0  0  0  0
   -8.8731    5.5276   71.5048 C   0  0  0  0  0  0
   -7.5319    3.4647   70.0445 H   0  0  0  0  0  0
   -7.9829    1.8701   70.4847 H   0  0  0  0  0  0
  -10.5733   11.7795   67.0320 H   0  0  0  0  0  0
  -13.4609   14.1650   66.1895 H   0  0  0  0  0  0
   -8.9459   10.1263   67.0835 H   0  0  0  0  0  0
   -6.4159    5.9742   70.5961 H   0  0  0  0  0  0
  1  2  1  0  0  0
  1 42  1  0  0  0
  1 43  1  0  0  0
  2  3  2  0  0  0
  2  4  2  0  0  0
  2  5  1  0  0  0
  5  6  2  0  0  0
  5 41  1  0  0  0
  6  7  1  0  0  0
  7  8  2  0  0  0
  8  9  1  0  0  0
  8 40  1  0  0  0
  9 10  1  0  0  0
 10 11  2  0  0  0
 10 39  1  0  0  0
 11 12  1  0  0  0
 12 13  2  0  0  0
 13 14  1  0  0  0
 14 15  1  0  0  0
 14 39  2  0  0  0
 15 16  1  0  0  0
 15 44  1  0  0  0
 16 17  2  0  0  0
 16 18  1  0  0  0
 18 19  1  0  0  0
 18 21  1  0  0  0
 19 20  1  0  0  0
 20 45  1  0  0  0
 21 22  2  0  0  0
 21 26  1  0  0  0
 22 23  1  0  0  0
 23 24  2  0  0  0
 24 25  1  0  0  0
 25 26  2  0  0  0
 26 27  1  0  0  0
 27 28  1  0  0  0
 28 29  1  0  0  0
 29 30  1  0  0  0
 29 46  1  0  0  0
 30 31  2  0  0  0
 30 32  1  0  0  0
 32 33  1  0  0  0
 32 38  1  0  0  0
 33 34  1  0  0  0
 34 35  1  0  0  0
 35 36  1  0  0  0
 35 37  1  0  0  0
 36 47  1  0  0  0
 37 38  1  0  0  0
 40 41  2  0  0  0
M  END
>  <AUTHOR>
    GENERATED BY OPEN BABEL 2.3.2

>  <CHROM.1>
59.10648688,150.88353485,6.68236589,97.22158533,37.25216400,122.89782420
-50.07745049,-120.61564575,68.23373304,50.83751283,-167.91642484,-86.39473230
167.79897827,-179.84088244,-9.20542599,9.83135244,68.50634947,-1.48236533
0.30966504,-0.38376992

>  <COMPND>
    UNNAMED

>  <MASTER>
        0    0    0    0    0    0    0    0   77    0   77    0

>  <Name>
ligands/mol8.pdb

>  <RI>
1.64757e+07

>  <Rbt.Current_Directory>
/home/rochoa/Projects/OCONDOR

>  <Rbt.Executable>
rbdock ($Id: //depot/dev/client3/rdock/2013.1/src/exe/rbdock.cxx#4 $)

>  <Rbt.Library>
libRbt.so (2013.1, Build901 2013/11/27)

>  <Rbt.Parameter_File>
dock.prm

>  <Rbt.Receptor>
rdock.prm

>  <SCORE>
-3.74287

>  <SCORE.INTER>
-0.168338

>  <SCORE.INTER.CONST>
1

>  <SCORE.INTER.POLAR>
0

>  <SCORE.INTER.REPUL>
0.0114078

>  <SCORE.INTER.ROT>
13

>  <SCORE.INTER.VDW>
-18.6254

>  <SCORE.INTER.norm>
-0.00410581

>  <SCORE.INTRA>
-3.57453

>  <SCORE.INTRA.DIHEDRAL>
-1.01993

>  <SCORE.INTRA.DIHEDRAL.0>
15.0264

>  <SCORE.INTRA.POLAR>
0

>  <SCORE.INTRA.POLAR.0>
0

>  <SCORE.INTRA.REPUL>
0

>  <SCORE.INTRA.REPUL.0>
0

>  <SCORE.INTRA.VDW>
-3.06457

>  <SCORE.INTRA.VDW.0>
-4.74907

>  <SCORE.INTRA.norm>
-0.0871838

>  <SCORE.RESTR>
0

>  <SCORE.RESTR.CAVITY>
0

>  <SCORE.RESTR.norm>
0

>  <SCORE.SYSTEM>
0

>  <SCORE.SYSTEM.CONST>
0

>  <SCORE.SYSTEM.DIHEDRAL>
0

>  <SCORE.SYSTEM.norm>
0

>  <SCORE.heavy>
41

>  <SCORE.norm>
-0.0912896

$$$$
