ligands/mol4.pdb
  rDOCK(R)          3D
libRbt.so/2013.1/901 2013/11/27
 46 49  0  0  0  0  0  0  0  0999 V2000
   -9.2004    5.8453   73.2668 N   0  0  0  0  0  0
  -10.7091    6.1200   73.9516 S   0  0  0  0  0  0
  -11.4446    4.8981   73.8275 O   0  0  0  0  0  0
  -10.4281    6.7422   75.2372 O   0  0  0  0  0  0
  -11.4131    7.3245   72.8626 C   0  0  0  0  0  0
  -10.6916    8.4707   72.5275 C   0  0  0  0  0  0
  -11.2642    9.4208   71.6811 C   0  0  0  0  0  0
  -12.5623    9.2461   71.1730 C   0  0  0  0  0  0
  -13.1733   10.2832   70.2507 C   0  0  0  0  0  0
  -12.9908   11.7154   70.7130 C   0  0  0  0  0  0
  -13.4284   12.1240   71.9789 C   0  0  0  0  0  0
  -13.2846   13.4526   72.3826 C   0  0  0  0  0  0
  -12.7027   14.3956   71.5314 C   0  0  0  0  0  0
  -12.2919   14.0211   70.2557 C   0  0  0  0  0  0
  -11.7912   14.9198   69.2894 N   0  0  0  0  0  0
  -11.3729   16.2379   69.4542 C   0  0  0  0  0  0
  -11.3883   16.8810   70.4942 O   0  0  0  0  0  0
  -10.8892   16.7305   68.2459 N   0  0  0  0  0  0
  -10.3522   17.9726   67.9682 C   0  0  0  0  0  0
   -9.8301   18.2951   66.7645 C   0  0  0  0  0  0
   -9.8106   17.3680   65.5604 C   0  0  0  0  0  0
  -11.1522   17.2165   64.8356 C   0  0  0  0  0  0
  -11.2809   15.8999   64.2318 N   0  0  0  0  0  0
  -11.6072   14.8022   64.9884 C   0  0  0  0  0  0
  -11.7113   14.8670   66.2090 O   0  0  0  0  0  0
  -11.7279   13.4917   64.2009 C   0  0  0  0  0  0
  -10.3347   12.9733   63.8086 C   0  0  0  0  0  0
   -9.5731   12.3585   64.9885 C   0  0  0  0  0  0
  -10.3877   11.3071   65.7409 C   0  0  0  0  0  0
  -10.4868   10.1178   64.9558 O   0  0  0  0  0  0
  -11.7827   11.8115   66.1160 C   0  0  0  0  0  0
  -12.5351   12.4042   64.9243 C   0  0  0  0  0  0
   -9.2357   19.6782   66.5509 C   0  0  0  0  0  0
   -8.7696   20.2913   67.8569 C   0  0  0  0  0  0
   -7.7031   20.8964   67.9128 O   0  0  0  0  0  0
   -9.6462   20.1838   68.9053 N   0  0  0  0  0  0
  -10.3797   19.1148   68.9406 C   0  0  0  0  0  0
  -12.4212   12.6755   69.8624 C   0  0  0  0  0  0
  -13.2716    8.0835   71.5143 C   0  0  0  0  0  0
  -12.7020    7.1244   72.3607 C   0  0  0  0  0  0
   -9.3206    5.4900   72.3185 H   0  0  0  0  0  0
   -8.6544    5.2306   73.8708 H   0  0  0  0  0  0
  -11.9034   14.5964   68.3411 H   0  0  0  0  0  0
  -10.8260   16.0357   67.5216 H   0  0  0  0  0  0
  -11.3477   15.8235   63.2242 H   0  0  0  0  0  0
  -10.9980    9.4649   65.4615 H   0  0  0  0  0  0
  1  2  1  0  0  0
  1 41  1  0  0  0
  1 42  1  0  0  0
  2  3  2  0  0  0
  2  4  2  0  0  0
  2  5  1  0  0  0
  5  6  2  0  0  0
  5 40  1  0  0  0
  6  7  1  0  0  0
  7  8  2  0  0  0
  8  9  1  0  0  0
  8 39  1  0  0  0
  9 10  1  0  0  0
 10 11  2  0  0  0
 10 38  1  0  0  0
 11 12  1  0  0  0
 12 13  2  0  0  0
 13 14  1  0  0  0
 14 15  1  0  0  0
 14 38  2  0  0  0
 15 16  1  0  0  0
 15 43  1  0  0  0
 16 17  2  0  0  0
 16 18  1  0  0  0
 18 19  1  0  0  0
 18 44  1  0  0  0
 19 20  2  0  0  0
 19 37  1  0  0  0
 20 21  1  0  0  0
 20 33  1  0  0  0
 21 22  1  0  0  0
 22 23  1  0  0  0
 23 24  1  0  0  0
 23 45  1  0  0  0
 24 25  2  0  0  0
 24 26  1  0  0  0
 26 27  1  0  0  0
 26 32  1  0  0  0
 27 28  1  0  0  0
 28 29  1  0  0  0
 29 30  1  0  0  0
 29 31  1  0  0  0
 30 46  1  0  0  0
 31 32  1  0  0  0
 33 34  1  0  0  0
 34 35  2  0  0  0
 34 36  1  0  0  0
 36 37  2  0  0  0
 39 40  2  0  0  0
M  END
>  <AUTHOR>
    GENERATED BY OPEN BABEL 2.3.2

>  <CHROM.1>
53.86782796,-50.50167326,-45.73645498,-56.09128518,13.25769042,175.21507295
76.05645647,-149.37401678,78.34881040,74.17345609,179.27306393,-11.13892621
12.91812340,69.09809971,-2.62918022,-1.46252590,-1.59395220

>  <COMPND>
    UNNAMED

>  <MASTER>
        0    0    0    0    0    0    0    0   73    0   73    0

>  <Name>
ligands/mol4.pdb

>  <RI>
3.47398e+07

>  <Rbt.Current_Directory>
/home/rochoa/Projects/OCONDOR

>  <Rbt.Executable>
rbdock ($Id: //depot/dev/client3/rdock/2013.1/src/exe/rbdock.cxx#4 $)

>  <Rbt.Library>
libRbt.so (2013.1, Build901 2013/11/27)

>  <Rbt.Parameter_File>
dock.prm

>  <Rbt.Receptor>
rdock.prm

>  <SCORE>
-29.9004

>  <SCORE.INTER>
-22.1142

>  <SCORE.INTER.CONST>
1

>  <SCORE.INTER.POLAR>
-0.843533

>  <SCORE.INTER.REPUL>
0.0042031

>  <SCORE.INTER.ROT>
10

>  <SCORE.INTER.VDW>
-34.6672

>  <SCORE.INTER.norm>
-0.552855

>  <SCORE.INTRA>
-7.78625

>  <SCORE.INTRA.DIHEDRAL>
3.90109

>  <SCORE.INTRA.DIHEDRAL.0>
8.51926

>  <SCORE.INTRA.POLAR>
-1.93157

>  <SCORE.INTRA.POLAR.0>
0

>  <SCORE.INTRA.REPUL>
0

>  <SCORE.INTRA.REPUL.0>
0

>  <SCORE.INTRA.VDW>
-3.16947

>  <SCORE.INTRA.VDW.0>
-1.46228

>  <SCORE.INTRA.norm>
-0.194656

>  <SCORE.RESTR>
0

>  <SCORE.RESTR.CAVITY>
0

>  <SCORE.RESTR.norm>
0

>  <SCORE.SYSTEM>
0

>  <SCORE.SYSTEM.CONST>
0

>  <SCORE.SYSTEM.DIHEDRAL>
0

>  <SCORE.SYSTEM.norm>
0

>  <SCORE.heavy>
40

>  <SCORE.norm>
-0.747511

$$$$
ligands/mol4.pdb
  rDOCK(R)          3D
libRbt.so/2013.1/901 2013/11/27
 46 49  0  0  0  0  0  0  0  0999 V2000
   -8.2876    4.7236   76.8565 N   0  0  0  0  0  0
   -9.9365    4.4101   76.9122 S   0  0  0  0  0  0
  -10.0828    2.9861   76.9349 O   0  0  0  0  0  0
  -10.4447    5.2702   77.9708 O   0  0  0  0  0  0
  -10.4975    5.0178   75.3476 C   0  0  0  0  0  0
  -10.3598    6.3701   75.0325 C   0  0  0  0  0  0
  -10.8211    6.8399   73.8023 C   0  0  0  0  0  0
  -11.4347    5.9733   72.8824 C   0  0  0  0  0  0
  -11.9287    6.4941   71.5466 C   0  0  0  0  0  0
  -12.5511    7.8751   71.6059 C   0  0  0  0  0  0
  -13.4682    8.2083   72.6103 C   0  0  0  0  0  0
  -14.0599    9.4724   72.6373 C   0  0  0  0  0  0
  -13.7476   10.4248   71.6637 C   0  0  0  0  0  0
  -12.8656   10.1053   70.6359 C   0  0  0  0  0  0
  -12.5690   10.9602   69.5526 N   0  0  0  0  0  0
  -11.7601   10.7201   68.4447 C   0  0  0  0  0  0
  -11.1218    9.7022   68.2174 O   0  0  0  0  0  0
  -11.8023   11.8157   67.5877 N   0  0  0  0  0  0
  -11.1762   11.9877   66.3683 C   0  0  0  0  0  0
  -11.2596   13.1317   65.6543 C   0  0  0  0  0  0
  -11.9978   14.3786   66.1128 C   0  0  0  0  0  0
  -11.2565   15.2271   67.1513 C   0  0  0  0  0  0
  -12.1135   15.5463   68.2820 N   0  0  0  0  0  0
  -11.5819   15.8557   69.5089 C   0  0  0  0  0  0
  -10.3768   15.7857   69.7268 O   0  0  0  0  0  0
  -12.6155   16.1917   70.5909 C   0  0  0  0  0  0
  -13.7429   15.1463   70.5966 C   0  0  0  0  0  0
  -13.3161   13.8122   71.2195 C   0  0  0  0  0  0
  -12.6756   13.9755   72.5972 C   0  0  0  0  0  0
  -13.6766   14.3079   73.5607 O   0  0  0  0  0  0
  -11.5663   15.0294   72.6014 C   0  0  0  0  0  0
  -12.0145   16.3590   71.9939 C   0  0  0  0  0  0
  -10.5598   13.2283   64.3079 C   0  0  0  0  0  0
  -10.3708   11.8614   63.6797 C   0  0  0  0  0  0
  -10.5715   11.6965   62.4801 O   0  0  0  0  0  0
   -9.8979   10.8864   64.5193 N   0  0  0  0  0  0
  -10.2669   10.9609   65.7604 C   0  0  0  0  0  0
  -12.2570    8.8359   70.6261 C   0  0  0  0  0  0
  -11.5585    4.6142   73.2123 C   0  0  0  0  0  0
  -11.0952    4.1352   74.4437 C   0  0  0  0  0  0
   -8.1371    5.7318   76.8284 H   0  0  0  0  0  0
   -7.8676    4.2225   76.0733 H   0  0  0  0  0  0
  -12.8672   11.9123   69.6967 H   0  0  0  0  0  0
  -12.4736   12.5146   67.8566 H   0  0  0  0  0  0
  -13.0903   15.7567   68.1169 H   0  0  0  0  0  0
  -14.3350   13.5939   73.5694 H   0  0  0  0  0  0
  1  2  1  0  0  0
  1 41  1  0  0  0
  1 42  1  0  0  0
  2  3  2  0  0  0
  2  4  2  0  0  0
  2  5  1  0  0  0
  5  6  2  0  0  0
  5 40  1  0  0  0
  6  7  1  0  0  0
  7  8  2  0  0  0
  8  9  1  0  0  0
  8 39  1  0  0  0
  9 10  1  0  0  0
 10 11  2  0  0  0
 10 38  1  0  0  0
 11 12  1  0  0  0
 12 13  2  0  0  0
 13 14  1  0  0  0
 14 15  1  0  0  0
 14 38  2  0  0  0
 15 16  1  0  0  0
 15 43  1  0  0  0
 16 17  2  0  0  0
 16 18  1  0  0  0
 18 19  1  0  0  0
 18 44  1  0  0  0
 19 20  2  0  0  0
 19 37  1  0  0  0
 20 21  1  0  0  0
 20 33  1  0  0  0
 21 22  1  0  0  0
 22 23  1  0  0  0
 23 24  1  0  0  0
 23 45  1  0  0  0
 24 25  2  0  0  0
 24 26  1  0  0  0
 26 27  1  0  0  0
 26 32  1  0  0  0
 27 28  1  0  0  0
 28 29  1  0  0  0
 29 30  1  0  0  0
 29 31  1  0  0  0
 30 46  1  0  0  0
 31 32  1  0  0  0
 33 34  1  0  0  0
 34 35  2  0  0  0
 34 36  1  0  0  0
 36 37  2  0  0  0
 39 40  2  0  0  0
M  END
>  <AUTHOR>
    GENERATED BY OPEN BABEL 2.3.2

>  <CHROM.1>
179.36858553,-62.16180063,-38.17301800,-45.44287719,-176.56239171,-177.33758981
77.74407030,-130.39638713,156.27797438,47.07150926,59.06151599,-11.52024609
10.33894562,70.87576416,-1.26144184,1.30678252,-1.06502413

>  <COMPND>
    UNNAMED

>  <MASTER>
        0    0    0    0    0    0    0    0   73    0   73    0

>  <Name>
ligands/mol4.pdb

>  <RI>
3.47398e+07

>  <Rbt.Current_Directory>
/home/rochoa/Projects/OCONDOR

>  <Rbt.Executable>
rbdock ($Id: //depot/dev/client3/rdock/2013.1/src/exe/rbdock.cxx#4 $)

>  <Rbt.Library>
libRbt.so (2013.1, Build901 2013/11/27)

>  <Rbt.Parameter_File>
dock.prm

>  <Rbt.Receptor>
rdock.prm

>  <SCORE>
-21.5387

>  <SCORE.INTER>
-21.8958

>  <SCORE.INTER.CONST>
1

>  <SCORE.INTER.POLAR>
-0.895706

>  <SCORE.INTER.REPUL>
0

>  <SCORE.INTER.ROT>
10

>  <SCORE.INTER.VDW>
-34.2504

>  <SCORE.INTER.norm>
-0.547396

>  <SCORE.INTRA>
0.357162

>  <SCORE.INTRA.DIHEDRAL>
4.07336

>  <SCORE.INTRA.DIHEDRAL.0>
8.51926

>  <SCORE.INTRA.POLAR>
0

>  <SCORE.INTRA.POLAR.0>
0

>  <SCORE.INTRA.REPUL>
0

>  <SCORE.INTRA.REPUL.0>
0

>  <SCORE.INTRA.VDW>
-1.67952

>  <SCORE.INTRA.VDW.0>
-1.46228

>  <SCORE.INTRA.norm>
0.00892904

>  <SCORE.RESTR>
0

>  <SCORE.RESTR.CAVITY>
0

>  <SCORE.RESTR.norm>
0

>  <SCORE.SYSTEM>
0

>  <SCORE.SYSTEM.CONST>
0

>  <SCORE.SYSTEM.DIHEDRAL>
0

>  <SCORE.SYSTEM.norm>
0

>  <SCORE.heavy>
40

>  <SCORE.norm>
-0.538467

$$$$
ligands/mol4.pdb
  rDOCK(R)          3D
libRbt.so/2013.1/901 2013/11/27
 46 49  0  0  0  0  0  0  0  0999 V2000
  -11.0872   19.8706   66.3310 N   0  0  0  0  0  0
   -9.8819   18.7196   66.5384 S   0  0  0  0  0  0
   -8.7454   19.1778   65.7981 O   0  0  0  0  0  0
   -9.8406   18.4763   67.9729 O   0  0  0  0  0  0
  -10.5597   17.3010   65.7258 C   0  0  0  0  0  0
  -10.3980   16.0322   66.2831 C   0  0  0  0  0  0
  -10.9229   14.9197   65.6243 C   0  0  0  0  0  0
  -11.5994   15.0579   64.4008 C   0  0  0  0  0  0
  -12.1692   13.8424   63.6954 C   0  0  0  0  0  0
  -11.3880   12.5636   63.9246 C   0  0  0  0  0  0
  -10.5386   12.0524   62.9356 C   0  0  0  0  0  0
   -9.8483   10.8571   63.1443 C   0  0  0  0  0  0
   -9.9933   10.1518   64.3418 C   0  0  0  0  0  0
  -10.8582   10.6218   65.3255 C   0  0  0  0  0  0
  -11.1503    9.9288   66.5199 N   0  0  0  0  0  0
  -10.8784    8.6038   66.8514 C   0  0  0  0  0  0
  -10.3430    7.7701   66.1347 O   0  0  0  0  0  0
  -11.2807    8.3564   68.1604 N   0  0  0  0  0  0
  -11.1716    7.1922   68.8961 C   0  0  0  0  0  0
  -11.5756    7.0947   70.1817 C   0  0  0  0  0  0
  -12.2396    8.2180   70.9610 C   0  0  0  0  0  0
  -11.4240    8.7614   72.1390 C   0  0  0  0  0  0
  -11.4294    7.8331   73.2584 N   0  0  0  0  0  0
  -10.2605    7.4520   73.8684 C   0  0  0  0  0  0
   -9.1651    7.8010   73.4406 O   0  0  0  0  0  0
  -10.4360    6.4875   75.0478 C   0  0  0  0  0  0
  -10.7955    5.0815   74.5400 C   0  0  0  0  0  0
   -9.5979    4.3429   73.9315 C   0  0  0  0  0  0
   -8.3770    4.3283   74.8504 C   0  0  0  0  0  0
   -8.6016    3.4326   75.9404 O   0  0  0  0  0  0
   -8.0273    5.7226   75.3745 C   0  0  0  0  0  0
   -9.2282    6.4374   75.9946 C   0  0  0  0  0  0
  -11.3957    5.7817   70.9270 C   0  0  0  0  0  0
  -10.2655    4.9591   70.3401 C   0  0  0  0  0  0
   -9.4765    4.3739   71.0761 O   0  0  0  0  0  0
  -10.2523    4.8653   68.9725 N   0  0  0  0  0  0
  -10.6833    5.8976   68.3163 C   0  0  0  0  0  0
  -11.5357   11.8381   65.1169 C   0  0  0  0  0  0
  -11.7596   16.3427   63.8577 C   0  0  0  0  0  0
  -11.2382   17.4638   64.5149 C   0  0  0  0  0  0
  -11.3328   19.9269   65.3428 H   0  0  0  0  0  0
  -10.7878   20.7595   66.7323 H   0  0  0  0  0  0
  -11.7698   10.4311   67.1365 H   0  0  0  0  0  0
  -11.5825    9.1792   68.6537 H   0  0  0  0  0  0
  -12.3026    7.6363   73.7320 H   0  0  0  0  0  0
   -8.7180    2.5394   75.5771 H   0  0  0  0  0  0
  1  2  1  0  0  0
  1 41  1  0  0  0
  1 42  1  0  0  0
  2  3  2  0  0  0
  2  4  2  0  0  0
  2  5  1  0  0  0
  5  6  2  0  0  0
  5 40  1  0  0  0
  6  7  1  0  0  0
  7  8  2  0  0  0
  8  9  1  0  0  0
  8 39  1  0  0  0
  9 10  1  0  0  0
 10 11  2  0  0  0
 10 38  1  0  0  0
 11 12  1  0  0  0
 12 13  2  0  0  0
 13 14  1  0  0  0
 14 15  1  0  0  0
 14 38  2  0  0  0
 15 16  1  0  0  0
 15 43  1  0  0  0
 16 17  2  0  0  0
 16 18  1  0  0  0
 18 19  1  0  0  0
 18 44  1  0  0  0
 19 20  2  0  0  0
 19 37  1  0  0  0
 20 21  1  0  0  0
 20 33  1  0  0  0
 21 22  1  0  0  0
 22 23  1  0  0  0
 23 24  1  0  0  0
 23 45  1  0  0  0
 24 25  2  0  0  0
 24 26  1  0  0  0
 26 27  1  0  0  0
 26 32  1  0  0  0
 27 28  1  0  0  0
 28 29  1  0  0  0
 29 30  1  0  0  0
 29 31  1  0  0  0
 30 46  1  0  0  0
 31 32  1  0  0  0
 33 34  1  0  0  0
 34 35  2  0  0  0
 34 36  1  0  0  0
 36 37  2  0  0  0
 39 40  2  0  0  0
M  END
>  <AUTHOR>
    GENERATED BY OPEN BABEL 2.3.2

>  <CHROM.1>
62.16580601,-139.95960466,-31.16876131,-103.42954682,-13.31942992,178.24641239
-114.27667805,-74.22375622,129.62728411,73.78222967,62.20240989,-10.45829167
10.41559248,68.81862333,-1.88012842,1.39564473,2.81942553

>  <COMPND>
    UNNAMED

>  <MASTER>
        0    0    0    0    0    0    0    0   73    0   73    0

>  <Name>
ligands/mol4.pdb

>  <RI>
3.47398e+07

>  <Rbt.Current_Directory>
/home/rochoa/Projects/OCONDOR

>  <Rbt.Executable>
rbdock ($Id: //depot/dev/client3/rdock/2013.1/src/exe/rbdock.cxx#4 $)

>  <Rbt.Library>
libRbt.so (2013.1, Build901 2013/11/27)

>  <Rbt.Parameter_File>
dock.prm

>  <Rbt.Receptor>
rdock.prm

>  <SCORE>
-22.0276

>  <SCORE.INTER>
-18.7827

>  <SCORE.INTER.CONST>
1

>  <SCORE.INTER.POLAR>
-0.191043

>  <SCORE.INTER.REPUL>
0.00689719

>  <SCORE.INTER.ROT>
10

>  <SCORE.INTER.VDW>
-33.5676

>  <SCORE.INTER.norm>
-0.469567

>  <SCORE.INTRA>
-3.2449

>  <SCORE.INTRA.DIHEDRAL>
-1.62791

>  <SCORE.INTRA.DIHEDRAL.0>
8.51926

>  <SCORE.INTRA.POLAR>
0

>  <SCORE.INTRA.POLAR.0>
0

>  <SCORE.INTRA.REPUL>
0

>  <SCORE.INTRA.REPUL.0>
0

>  <SCORE.INTRA.VDW>
-2.43095

>  <SCORE.INTRA.VDW.0>
-1.46228

>  <SCORE.INTRA.norm>
-0.0811225

>  <SCORE.RESTR>
0

>  <SCORE.RESTR.CAVITY>
0

>  <SCORE.RESTR.norm>
0

>  <SCORE.SYSTEM>
0

>  <SCORE.SYSTEM.CONST>
0

>  <SCORE.SYSTEM.DIHEDRAL>
0

>  <SCORE.SYSTEM.norm>
0

>  <SCORE.heavy>
40

>  <SCORE.norm>
-0.550689

$$$$
ligands/mol4.pdb
  rDOCK(R)          3D
libRbt.so/2013.1/901 2013/11/27
 46 49  0  0  0  0  0  0  0  0999 V2000
   -8.2865   16.3732   65.4767 N   0  0  0  0  0  0
   -9.9105   16.7816   65.6053 S   0  0  0  0  0  0
   -9.9803   18.2102   65.5429 O   0  0  0  0  0  0
  -10.5895   15.9181   64.6504 O   0  0  0  0  0  0
  -10.3099   16.2607   67.2489 C   0  0  0  0  0  0
   -9.5282   15.2966   67.8863 C   0  0  0  0  0  0
   -9.8633   14.8824   69.1759 C   0  0  0  0  0  0
  -10.9847   15.4120   69.8359 C   0  0  0  0  0  0
  -11.3373   14.9574   71.2390 C   0  0  0  0  0  0
  -12.1340   13.6689   71.2965 C   0  0  0  0  0  0
  -13.0736   13.4488   72.3111 C   0  0  0  0  0  0
  -13.7790   12.2457   72.3737 C   0  0  0  0  0  0
  -13.5592   11.2424   71.4263 C   0  0  0  0  0  0
  -12.6057   11.4241   70.4292 C   0  0  0  0  0  0
  -12.2393   10.4326   69.4939 N   0  0  0  0  0  0
  -11.1590   10.4154   68.6152 C   0  0  0  0  0  0
  -10.3217   11.2956   68.4748 O   0  0  0  0  0  0
  -11.1403    9.2104   67.9193 N   0  0  0  0  0  0
  -10.2319    8.7663   66.9780 C   0  0  0  0  0  0
  -10.2586    7.5176   66.4629 C   0  0  0  0  0  0
  -11.3041    6.4690   66.8057 C   0  0  0  0  0  0
  -10.8145    5.3368   67.7148 C   0  0  0  0  0  0
  -10.3525    5.8492   68.9949 N   0  0  0  0  0  0
  -10.1592    5.0120   70.0652 C   0  0  0  0  0  0
  -10.4543    3.8223   70.0160 O   0  0  0  0  0  0
   -9.6474    5.7013   71.3361 C   0  0  0  0  0  0
  -10.6698    6.7373   71.8312 C   0  0  0  0  0  0
  -11.8912    6.0971   72.5008 C   0  0  0  0  0  0
  -11.5159    5.0928   73.5897 C   0  0  0  0  0  0
  -11.0268    5.7850   74.7396 O   0  0  0  0  0  0
  -10.4834    4.0716   73.1077 C   0  0  0  0  0  0
   -9.2639    4.7276   72.4596 C   0  0  0  0  0  0
   -9.2048    7.1017   65.4488 C   0  0  0  0  0  0
   -7.9364    7.9189   65.5975 C   0  0  0  0  0  0
   -6.8372    7.3779   65.5231 O   0  0  0  0  0  0
   -8.1181    9.2706   65.7357 N   0  0  0  0  0  0
   -9.1867    9.6507   66.3648 C   0  0  0  0  0  0
  -11.9125   12.6475   70.3598 C   0  0  0  0  0  0
  -11.7561   16.3866   69.1830 C   0  0  0  0  0  0
  -11.4240   16.8093   67.8901 C   0  0  0  0  0  0
   -8.1929   15.3577   65.4838 H   0  0  0  0  0  0
   -7.7542   16.8410   66.2106 H   0  0  0  0  0  0
  -12.9477    9.7293   69.3531 H   0  0  0  0  0  0
  -11.8205    8.5447   68.2441 H   0  0  0  0  0  0
   -9.9626    6.7827   69.0411 H   0  0  0  0  0  0
  -10.8770    5.1321   75.4430 H   0  0  0  0  0  0
  1  2  1  0  0  0
  1 41  1  0  0  0
  1 42  1  0  0  0
  2  3  2  0  0  0
  2  4  2  0  0  0
  2  5  1  0  0  0
  5  6  2  0  0  0
  5 40  1  0  0  0
  6  7  1  0  0  0
  7  8  2  0  0  0
  8  9  1  0  0  0
  8 39  1  0  0  0
  9 10  1  0  0  0
 10 11  2  0  0  0
 10 38  1  0  0  0
 11 12  1  0  0  0
 12 13  2  0  0  0
 13 14  1  0  0  0
 14 15  1  0  0  0
 14 38  2  0  0  0
 15 16  1  0  0  0
 15 43  1  0  0  0
 16 17  2  0  0  0
 16 18  1  0  0  0
 18 19  1  0  0  0
 18 44  1  0  0  0
 19 20  2  0  0  0
 19 37  1  0  0  0
 20 21  1  0  0  0
 20 33  1  0  0  0
 21 22  1  0  0  0
 22 23  1  0  0  0
 23 24  1  0  0  0
 23 45  1  0  0  0
 24 25  2  0  0  0
 24 26  1  0  0  0
 26 27  1  0  0  0
 26 32  1  0  0  0
 27 28  1  0  0  0
 28 29  1  0  0  0
 29 30  1  0  0  0
 29 31  1  0  0  0
 30 46  1  0  0  0
 31 32  1  0  0  0
 33 34  1  0  0  0
 34 35  2  0  0  0
 34 36  1  0  0  0
 36 37  2  0  0  0
 39 40  2  0  0  0
M  END
>  <AUTHOR>
    GENERATED BY OPEN BABEL 2.3.2

>  <CHROM.1>
-178.03146498,-21.84725300,-83.26017392,-147.84684614,-167.82960795,173.71438356
-106.39686489,60.38349696,165.00531586,62.02826355,174.66275931,-10.57352158
10.54982942,68.90960753,-1.55399345,-1.12073789,2.82139561

>  <COMPND>
    UNNAMED

>  <MASTER>
        0    0    0    0    0    0    0    0   73    0   73    0

>  <Name>
ligands/mol4.pdb

>  <RI>
3.47398e+07

>  <Rbt.Current_Directory>
/home/rochoa/Projects/OCONDOR

>  <Rbt.Executable>
rbdock ($Id: //depot/dev/client3/rdock/2013.1/src/exe/rbdock.cxx#4 $)

>  <Rbt.Library>
libRbt.so (2013.1, Build901 2013/11/27)

>  <Rbt.Parameter_File>
dock.prm

>  <Rbt.Receptor>
rdock.prm

>  <SCORE>
-21.2093

>  <SCORE.INTER>
-18.0614

>  <SCORE.INTER.CONST>
1

>  <SCORE.INTER.POLAR>
-1.31755

>  <SCORE.INTER.REPUL>
0

>  <SCORE.INTER.ROT>
10

>  <SCORE.INTER.VDW>
-28.9818

>  <SCORE.INTER.norm>
-0.451536

>  <SCORE.INTRA>
-3.14789

>  <SCORE.INTRA.DIHEDRAL>
-1.95641

>  <SCORE.INTRA.DIHEDRAL.0>
8.51926

>  <SCORE.INTRA.POLAR>
0

>  <SCORE.INTRA.POLAR.0>
0

>  <SCORE.INTRA.REPUL>
0

>  <SCORE.INTRA.REPUL.0>
0

>  <SCORE.INTRA.VDW>
-2.16968

>  <SCORE.INTRA.VDW.0>
-1.46228

>  <SCORE.INTRA.norm>
-0.0786972

>  <SCORE.RESTR>
0

>  <SCORE.RESTR.CAVITY>
0

>  <SCORE.RESTR.norm>
0

>  <SCORE.SYSTEM>
0

>  <SCORE.SYSTEM.CONST>
0

>  <SCORE.SYSTEM.DIHEDRAL>
0

>  <SCORE.SYSTEM.norm>
0

>  <SCORE.heavy>
40

>  <SCORE.norm>
-0.530233

$$$$
ligands/mol4.pdb
  rDOCK(R)          3D
libRbt.so/2013.1/901 2013/11/27
 46 49  0  0  0  0  0  0  0  0999 V2000
  -10.7985    5.9018   78.0372 N   0  0  0  0  0  0
   -9.2787    6.1271   77.3590 S   0  0  0  0  0  0
   -8.7808    7.3679   77.8710 O   0  0  0  0  0  0
   -8.5895    4.8606   77.5578 O   0  0  0  0  0  0
   -9.6494    6.3254   75.6398 C   0  0  0  0  0  0
  -10.5429    5.4566   75.0124 C   0  0  0  0  0  0
  -10.8142    5.6133   73.6527 C   0  0  0  0  0  0
  -10.1897    6.6245   72.9036 C   0  0  0  0  0  0
  -10.4950    6.7880   71.4272 C   0  0  0  0  0  0
  -11.0969    8.1297   71.0585 C   0  0  0  0  0  0
  -11.8335    8.8687   71.9923 C   0  0  0  0  0  0
  -12.4107   10.0880   71.6333 C   0  0  0  0  0  0
  -12.2634   10.5906   70.3378 C   0  0  0  0  0  0
  -11.5652    9.8578   69.3828 C   0  0  0  0  0  0
  -11.4518   10.2303   68.0262 N   0  0  0  0  0  0
  -10.6488    9.6779   67.0314 C   0  0  0  0  0  0
   -9.8546    8.7577   67.1655 O   0  0  0  0  0  0
  -10.9029   10.3114   65.8187 N   0  0  0  0  0  0
  -10.3534   10.0594   64.5765 C   0  0  0  0  0  0
  -10.7221   10.7262   63.4608 C   0  0  0  0  0  0
  -11.7357   11.8583   63.4322 C   0  0  0  0  0  0
  -11.1347   13.2668   63.3755 C   0  0  0  0  0  0
   -9.9873   13.3878   64.2607 N   0  0  0  0  0  0
  -10.1218   13.2426   65.6188 C   0  0  0  0  0  0
  -11.2194   13.0991   66.1474 O   0  0  0  0  0  0
   -8.8157   13.3748   66.4117 C   0  0  0  0  0  0
   -8.5123   14.8543   66.6996 C   0  0  0  0  0  0
   -9.4041   15.4431   67.7987 C   0  0  0  0  0  0
   -9.4155   14.5994   69.0727 C   0  0  0  0  0  0
   -8.1711   14.7421   69.7597 O   0  0  0  0  0  0
   -9.6972   13.1224   68.7893 C   0  0  0  0  0  0
   -8.7868   12.5466   67.7042 C   0  0  0  0  0  0
  -10.0844   10.3683   62.1277 C   0  0  0  0  0  0
   -9.5764    8.9398   62.1197 C   0  0  0  0  0  0
   -9.7464    8.2261   61.1357 O   0  0  0  0  0  0
   -8.8695    8.5586   63.2306 N   0  0  0  0  0  0
   -9.2294    9.0901   64.3575 C   0  0  0  0  0  0
  -10.9685    8.6388   69.7570 C   0  0  0  0  0  0
   -9.2989    7.4946   73.5522 C   0  0  0  0  0  0
   -9.0243    7.3453   74.9171 C   0  0  0  0  0  0
  -10.6953    5.6615   79.0229 H   0  0  0  0  0  0
  -11.3181    5.2099   77.4967 H   0  0  0  0  0  0
  -11.9024   11.1056   67.8091 H   0  0  0  0  0  0
  -11.6741   10.9559   65.8523 H   0  0  0  0  0  0
   -9.0549   13.3601   63.8665 H   0  0  0  0  0  0
   -8.2013   14.1869   70.5559 H   0  0  0  0  0  0
  1  2  1  0  0  0
  1 41  1  0  0  0
  1 42  1  0  0  0
  2  3  2  0  0  0
  2  4  2  0  0  0
  2  5  1  0  0  0
  5  6  2  0  0  0
  5 40  1  0  0  0
  6  7  1  0  0  0
  7  8  2  0  0  0
  8  9  1  0  0  0
  8 39  1  0  0  0
  9 10  1  0  0  0
 10 11  2  0  0  0
 10 38  1  0  0  0
 11 12  1  0  0  0
 12 13  2  0  0  0
 13 14  1  0  0  0
 14 15  1  0  0  0
 14 38  2  0  0  0
 15 16  1  0  0  0
 15 43  1  0  0  0
 16 17  2  0  0  0
 16 18  1  0  0  0
 18 19  1  0  0  0
 18 44  1  0  0  0
 19 20  2  0  0  0
 19 37  1  0  0  0
 20 21  1  0  0  0
 20 33  1  0  0  0
 21 22  1  0  0  0
 22 23  1  0  0  0
 23 24  1  0  0  0
 23 45  1  0  0  0
 24 25  2  0  0  0
 24 26  1  0  0  0
 26 27  1  0  0  0
 26 32  1  0  0  0
 27 28  1  0  0  0
 28 29  1  0  0  0
 29 30  1  0  0  0
 29 31  1  0  0  0
 30 46  1  0  0  0
 31 32  1  0  0  0
 33 34  1  0  0  0
 34 35  2  0  0  0
 34 36  1  0  0  0
 36 37  2  0  0  0
 39 40  2  0  0  0
M  END
>  <AUTHOR>
    GENERATED BY OPEN BABEL 2.3.2

>  <CHROM.1>
-72.54231830,-45.63526757,119.04129343,-26.73068334,170.88629142,177.80518312
100.61951370,-41.73609706,-63.18874502,84.49934463,-179.18577436,-10.09657550
9.77174613,69.30358079,1.39907843,1.45531152,2.16790803

>  <COMPND>
    UNNAMED

>  <MASTER>
        0    0    0    0    0    0    0    0   73    0   73    0

>  <Name>
ligands/mol4.pdb

>  <RI>
3.47398e+07

>  <Rbt.Current_Directory>
/home/rochoa/Projects/OCONDOR

>  <Rbt.Executable>
rbdock ($Id: //depot/dev/client3/rdock/2013.1/src/exe/rbdock.cxx#4 $)

>  <Rbt.Library>
libRbt.so (2013.1, Build901 2013/11/27)

>  <Rbt.Parameter_File>
dock.prm

>  <Rbt.Receptor>
rdock.prm

>  <SCORE>
-19.0294

>  <SCORE.INTER>
-14.9025

>  <SCORE.INTER.CONST>
1

>  <SCORE.INTER.POLAR>
-1.55017

>  <SCORE.INTER.REPUL>
0.02342

>  <SCORE.INTER.ROT>
10

>  <SCORE.INTER.VDW>
-25.149

>  <SCORE.INTER.norm>
-0.372563

>  <SCORE.INTRA>
-4.12683

>  <SCORE.INTRA.DIHEDRAL>
-0.0684682

>  <SCORE.INTRA.DIHEDRAL.0>
8.51926

>  <SCORE.INTRA.POLAR>
0

>  <SCORE.INTRA.POLAR.0>
0

>  <SCORE.INTRA.REPUL>
0

>  <SCORE.INTRA.REPUL.0>
0

>  <SCORE.INTRA.VDW>
-4.09259

>  <SCORE.INTRA.VDW.0>
-1.46228

>  <SCORE.INTRA.norm>
-0.103171

>  <SCORE.RESTR>
0

>  <SCORE.RESTR.CAVITY>
0

>  <SCORE.RESTR.norm>
0

>  <SCORE.SYSTEM>
0

>  <SCORE.SYSTEM.CONST>
0

>  <SCORE.SYSTEM.DIHEDRAL>
0

>  <SCORE.SYSTEM.norm>
0

>  <SCORE.heavy>
40

>  <SCORE.norm>
-0.475734

$$$$
ligands/mol4.pdb
  rDOCK(R)          3D
libRbt.so/2013.1/901 2013/11/27
 46 49  0  0  0  0  0  0  0  0999 V2000
   -8.4108    9.5373   62.9397 N   0  0  0  0  0  0
   -9.2123   10.4925   61.8146 S   0  0  0  0  0  0
   -8.2183   11.3116   61.1895 O   0  0  0  0  0  0
  -10.0515    9.5663   61.0685 O   0  0  0  0  0  0
  -10.2357   11.5137   62.8353 C   0  0  0  0  0  0
  -11.5973   11.2361   62.9604 C   0  0  0  0  0  0
  -12.3967   12.0586   63.7551 C   0  0  0  0  0  0
  -11.8525   13.1703   64.4196 C   0  0  0  0  0  0
  -12.7299   14.0552   65.2838 C   0  0  0  0  0  0
  -12.4523   13.9492   66.7704 C   0  0  0  0  0  0
  -12.2450   15.0958   67.5471 C   0  0  0  0  0  0
  -11.9584   14.9859   68.9089 C   0  0  0  0  0  0
  -11.8733   13.7316   69.5188 C   0  0  0  0  0  0
  -12.0410   12.5768   68.7607 C   0  0  0  0  0  0
  -11.8711   11.2686   69.2625 N   0  0  0  0  0  0
  -11.7378   10.0729   68.5610 C   0  0  0  0  0  0
  -11.7700    9.9350   67.3463 O   0  0  0  0  0  0
  -11.5237    9.0272   69.4539 N   0  0  0  0  0  0
  -11.3118    7.6884   69.1872 C   0  0  0  0  0  0
  -11.1246    6.7666   70.1570 C   0  0  0  0  0  0
  -11.1724    7.0648   71.6465 C   0  0  0  0  0  0
   -9.8238    6.9810   72.3691 C   0  0  0  0  0  0
   -9.9969    6.9822   73.8130 N   0  0  0  0  0  0
   -9.8714    5.8266   74.5427 C   0  0  0  0  0  0
   -9.7022    4.7377   74.0038 O   0  0  0  0  0  0
  -10.0593    5.9979   76.0551 C   0  0  0  0  0  0
  -10.3405    4.6388   76.7165 C   0  0  0  0  0  0
   -9.0894    3.7600   76.8290 C   0  0  0  0  0  0
   -7.9098    4.4828   77.4779 C   0  0  0  0  0  0
   -8.1455    4.6344   78.8787 O   0  0  0  0  0  0
   -7.6385    5.8450   76.8363 C   0  0  0  0  0  0
   -8.8925    6.7154   76.7489 C   0  0  0  0  0  0
  -10.8723    5.3166   69.7750 C   0  0  0  0  0  0
  -10.2762    5.2029   68.3857 C   0  0  0  0  0  0
   -9.3621    4.4139   68.1651 O   0  0  0  0  0  0
  -10.8777    5.9687   67.4209 N   0  0  0  0  0  0
  -11.3622    7.1091   67.8043 C   0  0  0  0  0  0
  -12.3499   12.6952   67.3923 C   0  0  0  0  0  0
  -10.4791   13.4310   64.2888 C   0  0  0  0  0  0
   -9.6703   12.6081   63.4956 C   0  0  0  0  0  0
   -8.0011   10.1344   63.6577 H   0  0  0  0  0  0
   -7.7335    8.9401   62.4648 H   0  0  0  0  0  0
  -12.0221   11.1950   70.2565 H   0  0  0  0  0  0
  -11.3959    9.3270   70.4054 H   0  0  0  0  0  0
   -9.9922    7.8647   74.3098 H   0  0  0  0  0  0
   -8.2078    3.7482   79.2712 H   0  0  0  0  0  0
  1  2  1  0  0  0
  1 41  1  0  0  0
  1 42  1  0  0  0
  2  3  2  0  0  0
  2  4  2  0  0  0
  2  5  1  0  0  0
  5  6  2  0  0  0
  5 40  1  0  0  0
  6  7  1  0  0  0
  7  8  2  0  0  0
  8  9  1  0  0  0
  8 39  1  0  0  0
  9 10  1  0  0  0
 10 11  2  0  0  0
 10 38  1  0  0  0
 11 12  1  0  0  0
 12 13  2  0  0  0
 13 14  1  0  0  0
 14 15  1  0  0  0
 14 38  2  0  0  0
 15 16  1  0  0  0
 15 43  1  0  0  0
 16 17  2  0  0  0
 16 18  1  0  0  0
 18 19  1  0  0  0
 18 44  1  0  0  0
 19 20  2  0  0  0
 19 37  1  0  0  0
 20 21  1  0  0  0
 20 33  1  0  0  0
 21 22  1  0  0  0
 22 23  1  0  0  0
 23 24  1  0  0  0
 23 45  1  0  0  0
 24 25  2  0  0  0
 24 26  1  0  0  0
 26 27  1  0  0  0
 26 32  1  0  0  0
 27 28  1  0  0  0
 28 29  1  0  0  0
 29 30  1  0  0  0
 29 31  1  0  0  0
 30 46  1  0  0  0
 31 32  1  0  0  0
 33 34  1  0  0  0
 34 35  2  0  0  0
 34 36  1  0  0  0
 36 37  2  0  0  0
 39 40  2  0  0  0
M  END
>  <AUTHOR>
    GENERATED BY OPEN BABEL 2.3.2

>  <CHROM.1>
63.66059385,-102.53904633,110.14420347,129.43407021,-165.28132977,-179.52053922
-110.22195477,-167.23617533,103.75534566,162.20928873,62.38289851,-10.45689003
9.00658021,68.92345058,-1.85957303,-1.21490607,1.80514065

>  <COMPND>
    UNNAMED

>  <MASTER>
        0    0    0    0    0    0    0    0   73    0   73    0

>  <Name>
ligands/mol4.pdb

>  <RI>
3.47398e+07

>  <Rbt.Current_Directory>
/home/rochoa/Projects/OCONDOR

>  <Rbt.Executable>
rbdock ($Id: //depot/dev/client3/rdock/2013.1/src/exe/rbdock.cxx#4 $)

>  <Rbt.Library>
libRbt.so (2013.1, Build901 2013/11/27)

>  <Rbt.Parameter_File>
dock.prm

>  <Rbt.Receptor>
rdock.prm

>  <SCORE>
-15.3493

>  <SCORE.INTER>
-13.6323

>  <SCORE.INTER.CONST>
1

>  <SCORE.INTER.POLAR>
0

>  <SCORE.INTER.REPUL>
0

>  <SCORE.INTER.ROT>
10

>  <SCORE.INTER.VDW>
-29.0323

>  <SCORE.INTER.norm>
-0.340807

>  <SCORE.INTRA>
-1.71705

>  <SCORE.INTRA.DIHEDRAL>
-0.424061

>  <SCORE.INTRA.DIHEDRAL.0>
8.51926

>  <SCORE.INTRA.POLAR>
0

>  <SCORE.INTRA.POLAR.0>
0

>  <SCORE.INTRA.REPUL>
0

>  <SCORE.INTRA.REPUL.0>
0

>  <SCORE.INTRA.VDW>
-1.50502

>  <SCORE.INTRA.VDW.0>
-1.46228

>  <SCORE.INTRA.norm>
-0.0429262

>  <SCORE.RESTR>
0

>  <SCORE.RESTR.CAVITY>
0

>  <SCORE.RESTR.norm>
0

>  <SCORE.SYSTEM>
0

>  <SCORE.SYSTEM.CONST>
0

>  <SCORE.SYSTEM.DIHEDRAL>
0

>  <SCORE.SYSTEM.norm>
0

>  <SCORE.heavy>
40

>  <SCORE.norm>
-0.383734

$$$$
ligands/mol4.pdb
  rDOCK(R)          3D
libRbt.so/2013.1/901 2013/11/27
 46 49  0  0  0  0  0  0  0  0999 V2000
   -7.6558   21.3242   66.7087 N   0  0  0  0  0  0
   -7.2567   19.8250   66.0656 S   0  0  0  0  0  0
   -7.3942   19.9382   64.6450 O   0  0  0  0  0  0
   -6.0014   19.4649   66.7084 O   0  0  0  0  0  0
   -8.5478   18.7843   66.6839 C   0  0  0  0  0  0
   -8.2743   17.4600   67.0277 C   0  0  0  0  0  0
   -9.3044   16.6449   67.4984 C   0  0  0  0  0  0
  -10.6156   17.1350   67.6178 C   0  0  0  0  0  0
  -11.7267   16.2414   68.1343 C   0  0  0  0  0  0
  -11.8196   14.8962   67.4415 C   0  0  0  0  0  0
  -11.9519   14.8112   66.0501 C   0  0  0  0  0  0
  -12.0689   13.5685   65.4249 C   0  0  0  0  0  0
  -12.0562   12.3904   66.1761 C   0  0  0  0  0  0
  -11.9607   12.4510   67.5631 C   0  0  0  0  0  0
  -12.0443   11.3267   68.4124 N   0  0  0  0  0  0
  -11.6319   10.0180   68.1744 C   0  0  0  0  0  0
  -11.1299    9.5896   67.1449 O   0  0  0  0  0  0
  -11.8440    9.2458   69.3125 N   0  0  0  0  0  0
  -11.5534    7.9116   69.5220 C   0  0  0  0  0  0
  -11.8365    7.2704   70.6771 C   0  0  0  0  0  0
  -12.5467    7.9062   71.8608 C   0  0  0  0  0  0
  -11.6406    8.2746   73.0403 C   0  0  0  0  0  0
  -11.0603    7.0893   73.6512 N   0  0  0  0  0  0
   -9.8170    7.1275   74.2312 C   0  0  0  0  0  0
   -9.1098    8.1284   74.1773 O   0  0  0  0  0  0
   -9.3565    5.8030   74.8522 C   0  0  0  0  0  0
   -7.8593    5.8655   75.1959 C   0  0  0  0  0  0
   -7.5677    6.7127   76.4398 C   0  0  0  0  0  0
   -8.4188    6.3146   77.6449 C   0  0  0  0  0  0
   -7.9620    5.0671   78.1700 O   0  0  0  0  0  0
   -9.9079    6.2315   77.3029 C   0  0  0  0  0  0
  -10.1823    5.3680   76.0714 C   0  0  0  0  0  0
  -11.4594    5.8058   70.8339 C   0  0  0  0  0  0
  -10.3024    5.4292   69.9294 C   0  0  0  0  0  0
   -9.3983    4.7104   70.3448 O   0  0  0  0  0  0
  -10.3934    5.8775   68.6372 N   0  0  0  0  0  0
  -10.9827    7.0192   68.4597 C   0  0  0  0  0  0
  -11.8226   13.7062   68.1855 C   0  0  0  0  0  0
  -10.8720   18.4720   67.2745 C   0  0  0  0  0  0
   -9.8425   19.2966   66.8044 C   0  0  0  0  0  0
   -7.8163   21.9849   65.9487 H   0  0  0  0  0  0
   -6.9343   21.6203   67.3664 H   0  0  0  0  0  0
  -12.6168   11.4790   69.2281 H   0  0  0  0  0  0
  -12.1426    9.7771   70.1125 H   0  0  0  0  0  0
  -11.6552    6.2934   73.8466 H   0  0  0  0  0  0
   -7.0453    5.1838   78.4689 H   0  0  0  0  0  0
  1  2  1  0  0  0
  1 41  1  0  0  0
  1 42  1  0  0  0
  2  3  2  0  0  0
  2  4  2  0  0  0
  2  5  1  0  0  0
  5  6  2  0  0  0
  5 40  1  0  0  0
  6  7  1  0  0  0
  7  8  2  0  0  0
  8  9  1  0  0  0
  8 39  1  0  0  0
  9 10  1  0  0  0
 10 11  2  0  0  0
 10 38  1  0  0  0
 11 12  1  0  0  0
 12 13  2  0  0  0
 13 14  1  0  0  0
 14 15  1  0  0  0
 14 38  2  0  0  0
 15 16  1  0  0  0
 15 43  1  0  0  0
 16 17  2  0  0  0
 16 18  1  0  0  0
 18 19  1  0  0  0
 18 44  1  0  0  0
 19 20  2  0  0  0
 19 37  1  0  0  0
 20 21  1  0  0  0
 20 33  1  0  0  0
 21 22  1  0  0  0
 22 23  1  0  0  0
 23 24  1  0  0  0
 23 45  1  0  0  0
 24 25  2  0  0  0
 24 26  1  0  0  0
 26 27  1  0  0  0
 26 32  1  0  0  0
 27 28  1  0  0  0
 28 29  1  0  0  0
 29 30  1  0  0  0
 29 31  1  0  0  0
 30 46  1  0  0  0
 31 32  1  0  0  0
 33 34  1  0  0  0
 34 35  2  0  0  0
 34 36  1  0  0  0
 36 37  2  0  0  0
 39 40  2  0  0  0
M  END
>  <AUTHOR>
    GENERATED BY OPEN BABEL 2.3.2

>  <CHROM.1>
-5.21920681,-144.82959720,-50.43208486,-55.28418774,32.50138608,-178.69549295
-103.98058147,-65.17269727,148.47392991,167.79606105,62.03184318,-10.01810259
11.51067668,69.94537698,-1.47097489,0.94660322,2.49744801

>  <COMPND>
    UNNAMED

>  <MASTER>
        0    0    0    0    0    0    0    0   73    0   73    0

>  <Name>
ligands/mol4.pdb

>  <RI>
3.47398e+07

>  <Rbt.Current_Directory>
/home/rochoa/Projects/OCONDOR

>  <Rbt.Executable>
rbdock ($Id: //depot/dev/client3/rdock/2013.1/src/exe/rbdock.cxx#4 $)

>  <Rbt.Library>
libRbt.so (2013.1, Build901 2013/11/27)

>  <Rbt.Parameter_File>
dock.prm

>  <Rbt.Receptor>
rdock.prm

>  <SCORE>
-12.7453

>  <SCORE.INTER>
-12.4857

>  <SCORE.INTER.CONST>
1

>  <SCORE.INTER.POLAR>
-0.574196

>  <SCORE.INTER.REPUL>
0

>  <SCORE.INTER.ROT>
10

>  <SCORE.INTER.VDW>
-25.9334

>  <SCORE.INTER.norm>
-0.312142

>  <SCORE.INTRA>
-0.259581

>  <SCORE.INTRA.DIHEDRAL>
3.7852

>  <SCORE.INTRA.DIHEDRAL.0>
8.51926

>  <SCORE.INTRA.POLAR>
0

>  <SCORE.INTRA.POLAR.0>
0

>  <SCORE.INTRA.REPUL>
0

>  <SCORE.INTRA.REPUL.0>
0

>  <SCORE.INTRA.VDW>
-2.15218

>  <SCORE.INTRA.VDW.0>
-1.46228

>  <SCORE.INTRA.norm>
-0.00648953

>  <SCORE.RESTR>
0

>  <SCORE.RESTR.CAVITY>
0

>  <SCORE.RESTR.norm>
0

>  <SCORE.SYSTEM>
0

>  <SCORE.SYSTEM.CONST>
0

>  <SCORE.SYSTEM.DIHEDRAL>
0

>  <SCORE.SYSTEM.norm>
0

>  <SCORE.heavy>
40

>  <SCORE.norm>
-0.318632

$$$$
ligands/mol4.pdb
  rDOCK(R)          3D
libRbt.so/2013.1/901 2013/11/27
 46 49  0  0  0  0  0  0  0  0999 V2000
  -10.1554    4.4158   76.0193 N   0  0  0  0  0  0
   -9.8584    3.6129   74.5744 S   0  0  0  0  0  0
   -8.4405    3.6337   74.3775 O   0  0  0  0  0  0
  -10.6215    2.3771   74.6701 O   0  0  0  0  0  0
  -10.6174    4.6755   73.3799 C   0  0  0  0  0  0
  -11.9828    4.9517   73.4571 C   0  0  0  0  0  0
  -12.5726    5.7779   72.4996 C   0  0  0  0  0  0
  -11.8135    6.3239   71.4511 C   0  0  0  0  0  0
  -12.4641    7.2237   70.4182 C   0  0  0  0  0  0
  -12.7386    8.6339   70.9022 C   0  0  0  0  0  0
  -13.3846    8.8623   72.1234 C   0  0  0  0  0  0
  -13.6614   10.1641   72.5450 C   0  0  0  0  0  0
  -13.2992   11.2592   71.7564 C   0  0  0  0  0  0
  -12.6875   11.0561   70.5230 C   0  0  0  0  0  0
  -12.3800   12.0895   69.6121 N   0  0  0  0  0  0
  -12.1518   13.4398   69.8653 C   0  0  0  0  0  0
  -12.2030   13.9942   70.9541 O   0  0  0  0  0  0
  -11.8150   14.0881   68.6809 N   0  0  0  0  0  0
  -11.4833   15.4143   68.4820 C   0  0  0  0  0  0
  -11.2692   15.9425   67.2571 C   0  0  0  0  0  0
  -11.4123   15.1745   65.9534 C   0  0  0  0  0  0
  -10.1566   15.1453   65.0757 C   0  0  0  0  0  0
   -9.0087   14.6405   65.8121 N   0  0  0  0  0  0
   -8.0918   15.4965   66.3689 C   0  0  0  0  0  0
   -8.1493   16.7089   66.1914 O   0  0  0  0  0  0
   -6.9529   14.8100   67.1329 C   0  0  0  0  0  0
   -5.9362   15.8521   67.6272 C   0  0  0  0  0  0
   -6.4446   16.6586   68.8277 C   0  0  0  0  0  0
   -6.9622   15.7759   69.9626 C   0  0  0  0  0  0
   -5.8648   15.1456   70.6254 O   0  0  0  0  0  0
   -7.9593   14.7239   69.4724 C   0  0  0  0  0  0
   -7.4290   13.9166   68.2873 C   0  0  0  0  0  0
  -10.8827   17.4075   67.1289 C   0  0  0  0  0  0
  -10.2133   17.9187   68.3896 C   0  0  0  0  0  0
   -9.2291   18.6486   68.3175 O   0  0  0  0  0  0
  -10.8276   17.5735   69.5655 N   0  0  0  0  0  0
  -11.4202   16.4202   69.5933 C   0  0  0  0  0  0
  -12.3930    9.7419   70.1132 C   0  0  0  0  0  0
  -10.4394    6.0418   71.3925 C   0  0  0  0  0  0
   -9.8404    5.2161   72.3516 C   0  0  0  0  0  0
   -9.7217    3.9017   76.7857 H   0  0  0  0  0  0
  -11.1591    4.5581   76.1346 H   0  0  0  0  0  0
  -12.4967   11.8241   68.6465 H   0  0  0  0  0  0
  -11.6910   13.4665   67.9001 H   0  0  0  0  0  0
   -8.9979   13.6712   66.1052 H   0  0  0  0  0  0
   -5.3300   15.8379   71.0473 H   0  0  0  0  0  0
  1  2  1  0  0  0
  1 41  1  0  0  0
  1 42  1  0  0  0
  2  3  2  0  0  0
  2  4  2  0  0  0
  2  5  1  0  0  0
  5  6  2  0  0  0
  5 40  1  0  0  0
  6  7  1  0  0  0
  7  8  2  0  0  0
  8  9  1  0  0  0
  8 39  1  0  0  0
  9 10  1  0  0  0
 10 11  2  0  0  0
 10 38  1  0  0  0
 11 12  1  0  0  0
 12 13  2  0  0  0
 13 14  1  0  0  0
 14 15  1  0  0  0
 14 38  2  0  0  0
 15 16  1  0  0  0
 15 43  1  0  0  0
 16 17  2  0  0  0
 16 18  1  0  0  0
 18 19  1  0  0  0
 18 44  1  0  0  0
 19 20  2  0  0  0
 19 37  1  0  0  0
 20 21  1  0  0  0
 20 33  1  0  0  0
 21 22  1  0  0  0
 22 23  1  0  0  0
 23 24  1  0  0  0
 23 45  1  0  0  0
 24 25  2  0  0  0
 24 26  1  0  0  0
 26 27  1  0  0  0
 26 32  1  0  0  0
 27 28  1  0  0  0
 28 29  1  0  0  0
 29 30  1  0  0  0
 29 31  1  0  0  0
 30 46  1  0  0  0
 31 32  1  0  0  0
 33 34  1  0  0  0
 34 35  2  0  0  0
 34 36  1  0  0  0
 36 37  2  0  0  0
 39 40  2  0  0  0
M  END
>  <AUTHOR>
    GENERATED BY OPEN BABEL 2.3.2

>  <CHROM.1>
-63.37900913,-59.83010659,76.47736185,-49.17479939,25.16458187,-175.02168463
-122.56723194,54.72749746,-98.33471511,176.02121798,64.80281121,-10.28888821
11.52680888,70.20691531,-1.70273474,-0.04800695,-0.47681073

>  <COMPND>
    UNNAMED

>  <MASTER>
        0    0    0    0    0    0    0    0   73    0   73    0

>  <Name>
ligands/mol4.pdb

>  <RI>
3.47398e+07

>  <Rbt.Current_Directory>
/home/rochoa/Projects/OCONDOR

>  <Rbt.Executable>
rbdock ($Id: //depot/dev/client3/rdock/2013.1/src/exe/rbdock.cxx#4 $)

>  <Rbt.Library>
libRbt.so (2013.1, Build901 2013/11/27)

>  <Rbt.Parameter_File>
dock.prm

>  <Rbt.Receptor>
rdock.prm

>  <SCORE>
-16.2218

>  <SCORE.INTER>
-12.1231

>  <SCORE.INTER.CONST>
1

>  <SCORE.INTER.POLAR>
-0.273908

>  <SCORE.INTER.REPUL>
0.0160131

>  <SCORE.INTER.ROT>
10

>  <SCORE.INTER.VDW>
-26.6718

>  <SCORE.INTER.norm>
-0.303076

>  <SCORE.INTRA>
-4.09872

>  <SCORE.INTRA.DIHEDRAL>
0.298556

>  <SCORE.INTRA.DIHEDRAL.0>
8.51926

>  <SCORE.INTRA.POLAR>
0

>  <SCORE.INTRA.POLAR.0>
0

>  <SCORE.INTRA.REPUL>
0

>  <SCORE.INTRA.REPUL.0>
0

>  <SCORE.INTRA.VDW>
-4.24799

>  <SCORE.INTRA.VDW.0>
-1.46228

>  <SCORE.INTRA.norm>
-0.102468

>  <SCORE.RESTR>
0

>  <SCORE.RESTR.CAVITY>
0

>  <SCORE.RESTR.norm>
0

>  <SCORE.SYSTEM>
0

>  <SCORE.SYSTEM.CONST>
0

>  <SCORE.SYSTEM.DIHEDRAL>
0

>  <SCORE.SYSTEM.norm>
0

>  <SCORE.heavy>
40

>  <SCORE.norm>
-0.405544

$$$$
ligands/mol4.pdb
  rDOCK(R)          3D
libRbt.so/2013.1/901 2013/11/27
 46 49  0  0  0  0  0  0  0  0999 V2000
   -6.5300    4.3792   70.7397 N   0  0  0  0  0  0
   -6.8512    5.6884   69.7379 S   0  0  0  0  0  0
   -5.9693    6.7409   70.1431 O   0  0  0  0  0  0
   -6.8515    5.1368   68.3910 O   0  0  0  0  0  0
   -8.5061    6.1229   70.1903 C   0  0  0  0  0  0
   -9.5865    5.5850   69.4902 C   0  0  0  0  0  0
  -10.8860    5.9483   69.8459 C   0  0  0  0  0  0
  -11.1210    6.8588   70.8897 C   0  0  0  0  0  0
  -12.5376    7.2436   71.2704 C   0  0  0  0  0  0
  -12.7994    8.7368   71.2758 C   0  0  0  0  0  0
  -13.3497    9.3666   72.3989 C   0  0  0  0  0  0
  -13.6167   10.7367   72.3822 C   0  0  0  0  0  0
  -13.3399   11.5014   71.2459 C   0  0  0  0  0  0
  -12.8253   10.8917   70.1057 C   0  0  0  0  0  0
  -12.6117   11.5577   68.8797 N   0  0  0  0  0  0
  -12.1238   12.8427   68.6555 C   0  0  0  0  0  0
  -11.8063   13.6590   69.5088 O   0  0  0  0  0  0
  -12.0114   13.0690   67.2870 N   0  0  0  0  0  0
  -11.5457   14.1906   66.6287 C   0  0  0  0  0  0
  -11.4359   14.2608   65.2839 C   0  0  0  0  0  0
  -11.8510   13.1534   64.3292 C   0  0  0  0  0  0
  -10.8440   12.0072   64.1870 C   0  0  0  0  0  0
   -9.7346   12.1604   65.1146 N   0  0  0  0  0  0
   -9.5772   11.3073   66.1782 C   0  0  0  0  0  0
  -10.4091   10.4457   66.4435 O   0  0  0  0  0  0
   -8.3459   11.5861   67.0490 C   0  0  0  0  0  0
   -8.5057   10.9258   68.4282 C   0  0  0  0  0  0
   -8.3083    9.4060   68.3883 C   0  0  0  0  0  0
   -7.0092    8.9917   67.6987 C   0  0  0  0  0  0
   -5.8958    9.2922   68.5418 O   0  0  0  0  0  0
   -6.8359    9.6620   66.3342 C   0  0  0  0  0  0
   -7.0176   11.1788   66.3955 C   0  0  0  0  0  0
  -10.8893   15.5255   64.6408 C   0  0  0  0  0  0
   -9.9952   16.2931   65.5949 C   0  0  0  0  0  0
   -8.9460   16.7910   65.1974 O   0  0  0  0  0  0
  -10.4819   16.4438   66.8675 N   0  0  0  0  0  0
  -11.2056   15.4722   67.3304 C   0  0  0  0  0  0
  -12.5395    9.5136   70.1362 C   0  0  0  0  0  0
  -10.0228    7.3850   71.5885 C   0  0  0  0  0  0
   -8.7162    7.0225   71.2391 C   0  0  0  0  0  0
   -5.5415    4.1379   70.6722 H   0  0  0  0  0  0
   -7.1586    3.6086   70.5121 H   0  0  0  0  0  0
  -13.0136   11.0821   68.0869 H   0  0  0  0  0  0
  -12.1899   12.2538   66.7258 H   0  0  0  0  0  0
   -8.9553   12.7541   64.8581 H   0  0  0  0  0  0
   -5.9116    8.6761   69.2925 H   0  0  0  0  0  0
  1  2  1  0  0  0
  1 41  1  0  0  0
  1 42  1  0  0  0
  2  3  2  0  0  0
  2  4  2  0  0  0
  2  5  1  0  0  0
  5  6  2  0  0  0
  5 40  1  0  0  0
  6  7  1  0  0  0
  7  8  2  0  0  0
  8  9  1  0  0  0
  8 39  1  0  0  0
  9 10  1  0  0  0
 10 11  2  0  0  0
 10 38  1  0  0  0
 11 12  1  0  0  0
 12 13  2  0  0  0
 13 14  1  0  0  0
 14 15  1  0  0  0
 14 38  2  0  0  0
 15 16  1  0  0  0
 15 43  1  0  0  0
 16 17  2  0  0  0
 16 18  1  0  0  0
 18 19  1  0  0  0
 18 44  1  0  0  0
 19 20  2  0  0  0
 19 37  1  0  0  0
 20 21  1  0  0  0
 20 33  1  0  0  0
 21 22  1  0  0  0
 22 23  1  0  0  0
 23 24  1  0  0  0
 23 45  1  0  0  0
 24 25  2  0  0  0
 24 26  1  0  0  0
 26 27  1  0  0  0
 26 32  1  0  0  0
 27 28  1  0  0  0
 28 29  1  0  0  0
 29 30  1  0  0  0
 29 31  1  0  0  0
 30 46  1  0  0  0
 31 32  1  0  0  0
 33 34  1  0  0  0
 34 35  2  0  0  0
 34 36  1  0  0  0
 36 37  2  0  0  0
 39 40  2  0  0  0
M  END
>  <AUTHOR>
    GENERATED BY OPEN BABEL 2.3.2

>  <CHROM.1>
-56.50432316,-92.55812857,-125.93784114,-127.03315404,39.75959413,177.12851044
-79.77544161,5.61739146,110.60628294,160.91166407,70.68923276,-9.88623136
10.29950453,68.40629125,-1.25890250,0.53671879,-0.61936156

>  <COMPND>
    UNNAMED

>  <MASTER>
        0    0    0    0    0    0    0    0   73    0   73    0

>  <Name>
ligands/mol4.pdb

>  <RI>
3.47398e+07

>  <Rbt.Current_Directory>
/home/rochoa/Projects/OCONDOR

>  <Rbt.Executable>
rbdock ($Id: //depot/dev/client3/rdock/2013.1/src/exe/rbdock.cxx#4 $)

>  <Rbt.Library>
libRbt.so (2013.1, Build901 2013/11/27)

>  <Rbt.Parameter_File>
dock.prm

>  <Rbt.Receptor>
rdock.prm

>  <SCORE>
-13.4042

>  <SCORE.INTER>
-9.64859

>  <SCORE.INTER.CONST>
1

>  <SCORE.INTER.POLAR>
-1.38096

>  <SCORE.INTER.REPUL>
0.0291385

>  <SCORE.INTER.ROT>
10

>  <SCORE.INTER.VDW>
-20.499

>  <SCORE.INTER.norm>
-0.241215

>  <SCORE.INTRA>
-3.75563

>  <SCORE.INTRA.DIHEDRAL>
11.4316

>  <SCORE.INTRA.DIHEDRAL.0>
8.51926

>  <SCORE.INTRA.POLAR>
-1

>  <SCORE.INTRA.POLAR.0>
0

>  <SCORE.INTRA.REPUL>
0

>  <SCORE.INTRA.REPUL.0>
0

>  <SCORE.INTRA.VDW>
-6.07145

>  <SCORE.INTRA.VDW.0>
-1.46228

>  <SCORE.INTRA.norm>
-0.0938908

>  <SCORE.RESTR>
0

>  <SCORE.RESTR.CAVITY>
0

>  <SCORE.RESTR.norm>
0

>  <SCORE.SYSTEM>
0

>  <SCORE.SYSTEM.CONST>
0

>  <SCORE.SYSTEM.DIHEDRAL>
0

>  <SCORE.SYSTEM.norm>
0

>  <SCORE.heavy>
40

>  <SCORE.norm>
-0.335105

$$$$
ligands/mol4.pdb
  rDOCK(R)          3D
libRbt.so/2013.1/901 2013/11/27
 46 49  0  0  0  0  0  0  0  0999 V2000
   -7.2472   18.5697   64.9759 N   0  0  0  0  0  0
   -6.8978   17.6444   66.3333 S   0  0  0  0  0  0
   -5.9403   16.6617   65.9245 O   0  0  0  0  0  0
   -6.6308   18.6126   67.3868 O   0  0  0  0  0  0
   -8.4401   16.8395   66.6584 C   0  0  0  0  0  0
   -9.2504   16.4271   65.6001 C   0  0  0  0  0  0
  -10.4717   15.8085   65.8696 C   0  0  0  0  0  0
  -10.9032   15.6078   67.1915 C   0  0  0  0  0  0
  -12.2307   14.9309   67.4729 C   0  0  0  0  0  0
  -12.1703   13.8566   68.5408 C   0  0  0  0  0  0
  -12.6334   14.1056   69.8386 C   0  0  0  0  0  0
  -12.5438   13.1200   70.8233 C   0  0  0  0  0  0
  -11.9910   11.8705   70.5306 C   0  0  0  0  0  0
  -11.4923   11.6115   69.2575 C   0  0  0  0  0  0
  -10.8238   10.4222   68.8958 N   0  0  0  0  0  0
   -9.8206    9.7400   69.5797 C   0  0  0  0  0  0
   -9.3057   10.0732   70.6376 O   0  0  0  0  0  0
   -9.4950    8.5742   68.8930 N   0  0  0  0  0  0
   -8.5796    7.5960   69.2299 C   0  0  0  0  0  0
   -8.4792    6.4235   68.5660 C   0  0  0  0  0  0
   -9.3101    6.0516   67.3490 C   0  0  0  0  0  0
  -10.8225    5.9934   67.5885 C   0  0  0  0  0  0
  -11.1263    5.6077   68.9573 N   0  0  0  0  0  0
  -11.6899    6.4987   69.8361 C   0  0  0  0  0  0
  -11.8733    7.6738   69.5355 O   0  0  0  0  0  0
  -11.9709    5.9328   71.2335 C   0  0  0  0  0  0
  -10.6570    5.5225   71.9185 C   0  0  0  0  0  0
   -9.8427    6.7230   72.4143 C   0  0  0  0  0  0
  -10.6626    7.6861   73.2717 C   0  0  0  0  0  0
  -10.9133    7.1023   74.5512 O   0  0  0  0  0  0
  -11.9807    8.0817   72.6030 C   0  0  0  0  0  0
  -12.7885    6.8722   72.1315 C   0  0  0  0  0  0
   -7.4602    5.3899   69.0189 C   0  0  0  0  0  0
   -7.1172    5.5527   70.4867 C   0  0  0  0  0  0
   -7.0064    4.5680   71.2112 O   0  0  0  0  0  0
   -6.8729    6.8378   70.8966 N   0  0  0  0  0  0
   -7.5453    7.7739   70.3019 C   0  0  0  0  0  0
  -11.6043   12.6026   68.2639 C   0  0  0  0  0  0
  -10.0723   16.0223   68.2446 C   0  0  0  0  0  0
   -8.8440   16.6409   67.9815 C   0  0  0  0  0  0
   -6.3802   18.9444   64.5914 H   0  0  0  0  0  0
   -7.9352   19.2845   65.2137 H   0  0  0  0  0  0
  -11.0023   10.1315   67.9472 H   0  0  0  0  0  0
  -10.0990    8.3821   68.1121 H   0  0  0  0  0  0
  -11.1288    4.6256   69.2043 H   0  0  0  0  0  0
  -10.0633    7.0102   75.0120 H   0  0  0  0  0  0
  1  2  1  0  0  0
  1 41  1  0  0  0
  1 42  1  0  0  0
  2  3  2  0  0  0
  2  4  2  0  0  0
  2  5  1  0  0  0
  5  6  2  0  0  0
  5 40  1  0  0  0
  6  7  1  0  0  0
  7  8  2  0  0  0
  8  9  1  0  0  0
  8 39  1  0  0  0
  9 10  1  0  0  0
 10 11  2  0  0  0
 10 38  1  0  0  0
 11 12  1  0  0  0
 12 13  2  0  0  0
 13 14  1  0  0  0
 14 15  1  0  0  0
 14 38  2  0  0  0
 15 16  1  0  0  0
 15 43  1  0  0  0
 16 17  2  0  0  0
 16 18  1  0  0  0
 18 19  1  0  0  0
 18 44  1  0  0  0
 19 20  2  0  0  0
 19 37  1  0  0  0
 20 21  1  0  0  0
 20 33  1  0  0  0
 21 22  1  0  0  0
 22 23  1  0  0  0
 23 24  1  0  0  0
 23 45  1  0  0  0
 24 25  2  0  0  0
 24 26  1  0  0  0
 26 27  1  0  0  0
 26 32  1  0  0  0
 27 28  1  0  0  0
 28 29  1  0  0  0
 29 30  1  0  0  0
 29 31  1  0  0  0
 30 46  1  0  0  0
 31 32  1  0  0  0
 33 34  1  0  0  0
 34 35  2  0  0  0
 34 36  1  0  0  0
 36 37  2  0  0  0
 39 40  2  0  0  0
M  END
>  <AUTHOR>
    GENERATED BY OPEN BABEL 2.3.2

>  <CHROM.1>
-54.99931888,36.36303864,133.72232368,102.59231958,-45.39083729,171.12360226
-61.48373194,-30.29898889,111.54938856,63.13661918,65.67856889,-9.74678893
10.79496460,69.17439037,-1.43074836,-0.45332116,2.82848138

>  <COMPND>
    UNNAMED

>  <MASTER>
        0    0    0    0    0    0    0    0   73    0   73    0

>  <Name>
ligands/mol4.pdb

>  <RI>
3.47398e+07

>  <Rbt.Current_Directory>
/home/rochoa/Projects/OCONDOR

>  <Rbt.Executable>
rbdock ($Id: //depot/dev/client3/rdock/2013.1/src/exe/rbdock.cxx#4 $)

>  <Rbt.Library>
libRbt.so (2013.1, Build901 2013/11/27)

>  <Rbt.Parameter_File>
dock.prm

>  <Rbt.Receptor>
rdock.prm

>  <SCORE>
-8.83799

>  <SCORE.INTER>
-7.40758

>  <SCORE.INTER.CONST>
1

>  <SCORE.INTER.POLAR>
0

>  <SCORE.INTER.REPUL>
0

>  <SCORE.INTER.ROT>
10

>  <SCORE.INTER.VDW>
-22.8076

>  <SCORE.INTER.norm>
-0.185189

>  <SCORE.INTRA>
-1.43041

>  <SCORE.INTRA.DIHEDRAL>
8.84567

>  <SCORE.INTRA.DIHEDRAL.0>
8.51926

>  <SCORE.INTRA.POLAR>
0

>  <SCORE.INTRA.POLAR.0>
0

>  <SCORE.INTRA.REPUL>
0

>  <SCORE.INTRA.REPUL.0>
0

>  <SCORE.INTRA.VDW>
-5.85324

>  <SCORE.INTRA.VDW.0>
-1.46228

>  <SCORE.INTRA.norm>
-0.0357602

>  <SCORE.RESTR>
0

>  <SCORE.RESTR.CAVITY>
0

>  <SCORE.RESTR.norm>
0

>  <SCORE.SYSTEM>
0

>  <SCORE.SYSTEM.CONST>
0

>  <SCORE.SYSTEM.DIHEDRAL>
0

>  <SCORE.SYSTEM.norm>
0

>  <SCORE.heavy>
40

>  <SCORE.norm>
-0.22095

$$$$
