ligands/mol1.pdb
  rDOCK(R)          3D
libRbt.so/2013.1/901 2013/11/27
 45 48  0  0  0  0  0  0  0  0999 V2000
  -12.5708   15.2065   70.6355 C   0  0  0  0  0  0
  -12.7892   16.2565   71.5424 C   0  0  0  0  0  0
  -12.9472   15.9714   72.8886 C   0  0  0  0  0  0
  -12.9636   14.7263   73.3866 N   0  0  0  0  0  0
  -12.7466   13.7196   72.5024 C   0  0  0  0  0  0
  -12.4765   13.8979   71.1428 C   0  0  0  0  0  0
  -12.0884   12.8453   70.2784 N   0  0  0  0  0  0
  -12.1450   11.4937   70.5566 C   0  0  0  0  0  0
  -12.4374   11.0355   71.6520 O   0  0  0  0  0  0
  -11.8200   10.7396   69.4357 N   0  0  0  0  0  0
  -11.7702    9.3280   69.3727 C   0  0  0  0  0  0
  -11.1668    8.6408   68.3169 C   0  0  0  0  0  0
  -11.0668    7.2565   68.3287 C   0  0  0  0  0  0
  -11.5999    6.5339   69.3836 C   0  0  0  0  0  0
  -12.2520    7.1801   70.4434 C   0  0  0  0  0  0
  -12.8580    6.4055   71.5962 C   0  0  0  0  0  0
  -11.9671    6.2398   72.8144 C   0  0  0  0  0  0
  -11.2582    7.3386   73.3265 C   0  0  0  0  0  0
  -10.4196    7.1872   74.4330 C   0  0  0  0  0  0
  -10.2802    5.9258   75.0205 C   0  0  0  0  0  0
   -9.2796    5.7329   76.4716 S   0  0  0  0  0  0
   -8.1133    6.5988   76.3322 O   0  0  0  0  0  0
  -10.1244    5.7624   77.6235 O   0  0  0  0  0  0
   -8.7498    4.1445   76.3163 N   0  0  0  0  0  0
  -10.9525    4.8179   74.5016 C   0  0  0  0  0  0
  -11.7865    4.9740   73.3949 C   0  0  0  0  0  0
  -12.3303    8.5884   70.4261 C   0  0  0  0  0  0
  -12.4751   15.5387   69.1608 C   0  0  0  0  0  0
  -11.0971   15.3150   68.5147 C   0  0  0  0  0  0
  -11.1704   14.8904   67.1305 N   0  0  0  0  0  0
  -10.5014   15.5372   66.1086 C   0  0  0  0  0  0
   -9.8275   16.5454   66.2929 O   0  0  0  0  0  0
  -10.7898   14.9753   64.7111 C   0  0  0  0  0  0
  -10.2161   13.5627   64.5058 C   0  0  0  0  0  0
  -11.0626   12.4520   65.1352 C   0  0  0  0  0  0
  -12.5337   12.5370   64.7379 C   0  0  0  0  0  0
  -13.1102   13.9332   64.9545 C   0  0  0  0  0  0
  -12.2676   15.0271   64.3041 C   0  0  0  0  0  0
  -12.6752   12.2032   63.3584 O   0  0  0  0  0  0
  -11.5509   13.1019   69.4692 H   0  0  0  0  0  0
  -11.8031   11.2276   68.5541 H   0  0  0  0  0  0
   -9.5101    3.4641   76.2806 H   0  0  0  0  0  0
   -8.0885    3.9469   77.0665 H   0  0  0  0  0  0
  -11.6801   14.0429   66.9291 H   0  0  0  0  0  0
  -12.4033   11.2728   63.2587 H   0  0  0  0  0  0
  1  2  2  0  0  0
  1  6  1  0  0  0
  1 28  1  0  0  0
  2  3  1  0  0  0
  3  4  2  0  0  0
  4  5  1  0  0  0
  5  6  2  0  0  0
  6  7  1  0  0  0
  7  8  1  0  0  0
  7 40  1  0  0  0
  8  9  2  0  0  0
  8 10  1  0  0  0
 10 11  1  0  0  0
 10 41  1  0  0  0
 11 12  2  0  0  0
 11 27  1  0  0  0
 12 13  1  0  0  0
 13 14  2  0  0  0
 14 15  1  0  0  0
 15 16  1  0  0  0
 15 27  2  0  0  0
 16 17  1  0  0  0
 17 18  2  0  0  0
 17 26  1  0  0  0
 18 19  1  0  0  0
 19 20  2  0  0  0
 20 21  1  0  0  0
 20 25  1  0  0  0
 21 22  2  0  0  0
 21 23  2  0  0  0
 21 24  1  0  0  0
 24 42  1  0  0  0
 24 43  1  0  0  0
 25 26  2  0  0  0
 28 29  1  0  0  0
 29 30  1  0  0  0
 30 31  1  0  0  0
 30 44  1  0  0  0
 31 32  2  0  0  0
 31 33  1  0  0  0
 33 34  1  0  0  0
 33 38  1  0  0  0
 34 35  1  0  0  0
 35 36  1  0  0  0
 36 37  1  0  0  0
 36 39  1  0  0  0
 37 38  1  0  0  0
 39 45  1  0  0  0
M  END
>  <AUTHOR>
    GENERATED BY OPEN BABEL 2.3.2

>  <CHROM.1>
113.27419905,-169.35347812,-165.86051351,94.21856638,45.98208282,-38.08003302
-59.33252191,146.52695254,126.64960052,-68.33925352,64.05468631,-11.39703276
10.63703204,70.47581582,2.76083291,1.43852781,-1.96756001

>  <COMPND>
    mol1_3d.pdb 

>  <MASTER>
        0    0    0    0    0    0    0    0   72    0   72    0

>  <Name>
ligands/mol1.pdb

>  <RI>
2.77152e+07

>  <Rbt.Current_Directory>
/home/rochoa/Projects/OCONDOR

>  <Rbt.Executable>
rbdock ($Id: //depot/dev/client3/rdock/2013.1/src/exe/rbdock.cxx#4 $)

>  <Rbt.Library>
libRbt.so (2013.1, Build901 2013/11/27)

>  <Rbt.Parameter_File>
dock.prm

>  <Rbt.Receptor>
rdock.prm

>  <SCORE>
-14.9827

>  <SCORE.INTER>
-18.9231

>  <SCORE.INTER.CONST>
1

>  <SCORE.INTER.POLAR>
0

>  <SCORE.INTER.REPUL>
0.0262054

>  <SCORE.INTER.ROT>
10

>  <SCORE.INTER.VDW>
-34.4541

>  <SCORE.INTER.norm>
-0.485207

>  <SCORE.INTRA>
3.94035

>  <SCORE.INTRA.DIHEDRAL>
3.29842

>  <SCORE.INTRA.DIHEDRAL.0>
8.24127

>  <SCORE.INTRA.POLAR>
0

>  <SCORE.INTRA.POLAR.0>
0

>  <SCORE.INTRA.REPUL>
0

>  <SCORE.INTRA.REPUL.0>
0

>  <SCORE.INTRA.VDW>
2.29114

>  <SCORE.INTRA.VDW.0>
-4.15137

>  <SCORE.INTRA.norm>
0.101035

>  <SCORE.RESTR>
0

>  <SCORE.RESTR.CAVITY>
0

>  <SCORE.RESTR.norm>
0

>  <SCORE.SYSTEM>
0

>  <SCORE.SYSTEM.CONST>
0

>  <SCORE.SYSTEM.DIHEDRAL>
0

>  <SCORE.SYSTEM.norm>
0

>  <SCORE.heavy>
39

>  <SCORE.norm>
-0.384173

$$$$
ligands/mol1.pdb
  rDOCK(R)          3D
libRbt.so/2013.1/901 2013/11/27
 45 48  0  0  0  0  0  0  0  0999 V2000
  -11.2154    7.0540   70.1445 C   0  0  0  0  0  0
  -10.9463    5.8147   70.7482 C   0  0  0  0  0  0
  -10.5897    4.7353   69.9570 C   0  0  0  0  0  0
  -10.5397    4.7812   68.6177 N   0  0  0  0  0  0
  -10.7965    5.9847   68.0450 C   0  0  0  0  0  0
  -11.0673    7.1607   68.7498 C   0  0  0  0  0  0
  -11.1650    8.4340   68.1374 N   0  0  0  0  0  0
  -10.7801    8.7561   66.8506 C   0  0  0  0  0  0
  -10.1890    7.9885   66.1044 O   0  0  0  0  0  0
  -11.1467   10.0577   66.5313 N   0  0  0  0  0  0
  -10.8984   10.7104   65.3019 C   0  0  0  0  0  0
  -10.0566   10.1790   64.3222 C   0  0  0  0  0  0
   -9.8995   10.8091   63.0955 C   0  0  0  0  0  0
  -10.5578   12.0013   62.8414 C   0  0  0  0  0  0
  -11.3790   12.5924   63.8122 C   0  0  0  0  0  0
  -12.0919   13.9055   63.5596 C   0  0  0  0  0  0
  -11.4829   15.1219   64.2340 C   0  0  0  0  0  0
  -10.5592   14.9623   65.2796 C   0  0  0  0  0  0
  -10.0129   16.0774   65.9187 C   0  0  0  0  0  0
  -10.4046   17.3584   65.5171 C   0  0  0  0  0  0
   -9.6634   18.7844   66.2664 S   0  0  0  0  0  0
   -9.4977   18.5096   67.6899 O   0  0  0  0  0  0
   -8.5873   19.2341   65.4409 O   0  0  0  0  0  0
  -10.8855   19.9291   66.1126 N   0  0  0  0  0  0
  -11.3470   17.5318   64.5020 C   0  0  0  0  0  0
  -11.8915   16.4149   63.8690 C   0  0  0  0  0  0
  -11.5426   11.9314   65.0475 C   0  0  0  0  0  0
  -11.6746    8.1979   71.0248 C   0  0  0  0  0  0
  -10.5567    9.0045   71.7076 C   0  0  0  0  0  0
   -9.5823    8.1768   72.3910 N   0  0  0  0  0  0
   -9.8763    7.4559   73.5331 C   0  0  0  0  0  0
  -10.9751    7.4963   74.0767 O   0  0  0  0  0  0
   -8.6758    6.7200   74.1409 C   0  0  0  0  0  0
   -7.5493    7.6733   74.5757 C   0  0  0  0  0  0
   -7.8091    8.3706   75.9145 C   0  0  0  0  0  0
   -8.1928    7.3932   77.0220 C   0  0  0  0  0  0
   -9.3206    6.4561   76.5994 C   0  0  0  0  0  0
   -9.0382    5.7528   75.2745 C   0  0  0  0  0  0
   -7.0598    6.6008   77.3726 O   0  0  0  0  0  0
  -11.3523    9.2126   68.7443 H   0  0  0  0  0  0
  -11.8033   10.5055   67.1509 H   0  0  0  0  0  0
  -11.7249   19.7019   66.6475 H   0  0  0  0  0  0
  -11.0828   20.0637   65.1216 H   0  0  0  0  0  0
   -8.6733    8.0774   71.9639 H   0  0  0  0  0  0
   -7.3317    6.0195   78.1058 H   0  0  0  0  0  0
  1  2  2  0  0  0
  1  6  1  0  0  0
  1 28  1  0  0  0
  2  3  1  0  0  0
  3  4  2  0  0  0
  4  5  1  0  0  0
  5  6  2  0  0  0
  6  7  1  0  0  0
  7  8  1  0  0  0
  7 40  1  0  0  0
  8  9  2  0  0  0
  8 10  1  0  0  0
 10 11  1  0  0  0
 10 41  1  0  0  0
 11 12  2  0  0  0
 11 27  1  0  0  0
 12 13  1  0  0  0
 13 14  2  0  0  0
 14 15  1  0  0  0
 15 16  1  0  0  0
 15 27  2  0  0  0
 16 17  1  0  0  0
 17 18  2  0  0  0
 17 26  1  0  0  0
 18 19  1  0  0  0
 19 20  2  0  0  0
 20 21  1  0  0  0
 20 25  1  0  0  0
 21 22  2  0  0  0
 21 23  2  0  0  0
 21 24  1  0  0  0
 24 42  1  0  0  0
 24 43  1  0  0  0
 25 26  2  0  0  0
 28 29  1  0  0  0
 29 30  1  0  0  0
 30 31  1  0  0  0
 30 44  1  0  0  0
 31 32  2  0  0  0
 31 33  1  0  0  0
 33 34  1  0  0  0
 33 38  1  0  0  0
 34 35  1  0  0  0
 35 36  1  0  0  0
 36 37  1  0  0  0
 36 39  1  0  0  0
 37 38  1  0  0  0
 39 45  1  0  0  0
M  END
>  <AUTHOR>
    GENERATED BY OPEN BABEL 2.3.2

>  <CHROM.1>
84.70566490,165.75289989,-10.43542160,-103.84011296,-15.98405472,-39.33652328
64.75952546,-49.78157021,-68.81475265,61.18739405,177.54306598,-10.18570741
10.96917647,68.75780675,1.25025503,1.28594601,2.72107071

>  <COMPND>
    mol1_3d.pdb 

>  <MASTER>
        0    0    0    0    0    0    0    0   72    0   72    0

>  <Name>
ligands/mol1.pdb

>  <RI>
2.77152e+07

>  <Rbt.Current_Directory>
/home/rochoa/Projects/OCONDOR

>  <Rbt.Executable>
rbdock ($Id: //depot/dev/client3/rdock/2013.1/src/exe/rbdock.cxx#4 $)

>  <Rbt.Library>
libRbt.so (2013.1, Build901 2013/11/27)

>  <Rbt.Parameter_File>
dock.prm

>  <Rbt.Receptor>
rdock.prm

>  <SCORE>
-17.3602

>  <SCORE.INTER>
-17.5561

>  <SCORE.INTER.CONST>
1

>  <SCORE.INTER.POLAR>
0

>  <SCORE.INTER.REPUL>
0

>  <SCORE.INTER.ROT>
10

>  <SCORE.INTER.VDW>
-32.9561

>  <SCORE.INTER.norm>
-0.450155

>  <SCORE.INTRA>
0.195809

>  <SCORE.INTRA.DIHEDRAL>
-1.8772

>  <SCORE.INTRA.DIHEDRAL.0>
8.24127

>  <SCORE.INTRA.POLAR>
0

>  <SCORE.INTRA.POLAR.0>
0

>  <SCORE.INTRA.REPUL>
0

>  <SCORE.INTRA.REPUL.0>
0

>  <SCORE.INTRA.VDW>
1.13441

>  <SCORE.INTRA.VDW.0>
-4.15137

>  <SCORE.INTRA.norm>
0.00502075

>  <SCORE.RESTR>
0

>  <SCORE.RESTR.CAVITY>
0

>  <SCORE.RESTR.norm>
0

>  <SCORE.SYSTEM>
0

>  <SCORE.SYSTEM.CONST>
0

>  <SCORE.SYSTEM.DIHEDRAL>
0

>  <SCORE.SYSTEM.norm>
0

>  <SCORE.heavy>
39

>  <SCORE.norm>
-0.445135

$$$$
ligands/mol1.pdb
  rDOCK(R)          3D
libRbt.so/2013.1/901 2013/11/27
 45 48  0  0  0  0  0  0  0  0999 V2000
  -10.0583    9.5873   65.1194 C   0  0  0  0  0  0
   -9.4241    9.9118   63.9090 C   0  0  0  0  0  0
   -9.6316   11.1597   63.3450 C   0  0  0  0  0  0
  -10.4624   12.0779   63.8598 N   0  0  0  0  0  0
  -11.0661   11.7561   65.0320 C   0  0  0  0  0  0
  -10.8522   10.5695   65.7388 C   0  0  0  0  0  0
  -11.3626   10.3309   67.0382 N   0  0  0  0  0  0
  -11.6911   11.2881   67.9780 C   0  0  0  0  0  0
  -11.4685   12.4825   67.8400 O   0  0  0  0  0  0
  -12.2937   10.7105   69.0888 N   0  0  0  0  0  0
  -12.7451   11.3989   70.2383 C   0  0  0  0  0  0
  -13.4026   10.7588   71.2913 C   0  0  0  0  0  0
  -13.7602   11.4530   72.4389 C   0  0  0  0  0  0
  -13.4948   12.8090   72.5374 C   0  0  0  0  0  0
  -12.8750   13.5005   71.4867 C   0  0  0  0  0  0
  -12.5939   14.9873   71.5684 C   0  0  0  0  0  0
  -11.8310   15.5753   70.3948 C   0  0  0  0  0  0
  -12.5101   15.9372   69.2201 C   0  0  0  0  0  0
  -11.8105   16.4575   68.1291 C   0  0  0  0  0  0
  -10.4220   16.6028   68.2107 C   0  0  0  0  0  0
   -9.5294   17.3325   66.8635 S   0  0  0  0  0  0
   -9.8760   18.7490   66.8091 O   0  0  0  0  0  0
   -8.1767   16.8740   66.9024 O   0  0  0  0  0  0
  -10.2415   16.5877   65.5346 N   0  0  0  0  0  0
   -9.7297   16.2160   69.3595 C   0  0  0  0  0  0
  -10.4327   15.6945   70.4450 C   0  0  0  0  0  0
  -12.5018   12.7781   70.3341 C   0  0  0  0  0  0
   -9.8731    8.1909   65.6762 C   0  0  0  0  0  0
   -8.9842    8.0840   66.9272 C   0  0  0  0  0  0
   -9.4449    7.0932   67.8799 N   0  0  0  0  0  0
  -10.5613    7.2753   68.6742 C   0  0  0  0  0  0
  -11.2221    8.3086   68.6602 O   0  0  0  0  0  0
  -10.8166    6.1399   69.6731 C   0  0  0  0  0  0
   -9.6676    5.9619   70.6806 C   0  0  0  0  0  0
   -9.6818    6.9811   71.8239 C   0  0  0  0  0  0
  -11.0403    7.0725   72.5134 C   0  0  0  0  0  0
  -12.1809    7.2644   71.5180 C   0  0  0  0  0  0
  -12.1659    6.2292   70.3965 C   0  0  0  0  0  0
  -11.2839    5.8744   73.2481 O   0  0  0  0  0  0
  -11.3046    9.3873   67.3786 H   0  0  0  0  0  0
  -12.6033    9.7568   68.9881 H   0  0  0  0  0  0
  -10.2597   15.5691   65.6010 H   0  0  0  0  0  0
   -9.7729   16.9122   64.6895 H   0  0  0  0  0  0
   -8.9601    6.2084   67.9038 H   0  0  0  0  0  0
  -12.1295    5.9924   73.7177 H   0  0  0  0  0  0
  1  2  2  0  0  0
  1  6  1  0  0  0
  1 28  1  0  0  0
  2  3  1  0  0  0
  3  4  2  0  0  0
  4  5  1  0  0  0
  5  6  2  0  0  0
  6  7  1  0  0  0
  7  8  1  0  0  0
  7 40  1  0  0  0
  8  9  2  0  0  0
  8 10  1  0  0  0
 10 11  1  0  0  0
 10 41  1  0  0  0
 11 12  2  0  0  0
 11 27  1  0  0  0
 12 13  1  0  0  0
 13 14  2  0  0  0
 14 15  1  0  0  0
 15 16  1  0  0  0
 15 27  2  0  0  0
 16 17  1  0  0  0
 17 18  2  0  0  0
 17 26  1  0  0  0
 18 19  1  0  0  0
 19 20  2  0  0  0
 20 21  1  0  0  0
 20 25  1  0  0  0
 21 22  2  0  0  0
 21 23  2  0  0  0
 21 24  1  0  0  0
 24 42  1  0  0  0
 24 43  1  0  0  0
 25 26  2  0  0  0
 28 29  1  0  0  0
 29 30  1  0  0  0
 30 31  1  0  0  0
 30 44  1  0  0  0
 31 32  2  0  0  0
 31 33  1  0  0  0
 33 34  1  0  0  0
 33 38  1  0  0  0
 34 35  1  0  0  0
 35 36  1  0  0  0
 36 37  1  0  0  0
 36 39  1  0  0  0
 37 38  1  0  0  0
 39 45  1  0  0  0
M  END
>  <AUTHOR>
    GENERATED BY OPEN BABEL 2.3.2

>  <CHROM.1>
108.38522609,153.35030470,176.76764396,175.87356554,82.68924125,69.36682733
-52.18289911,142.99819895,-72.97019167,61.43827114,176.47659884,-10.97145779
11.65753727,68.60679251,-1.75762844,1.20477420,-0.11472110

>  <COMPND>
    mol1_3d.pdb 

>  <MASTER>
        0    0    0    0    0    0    0    0   72    0   72    0

>  <Name>
ligands/mol1.pdb

>  <RI>
2.77152e+07

>  <Rbt.Current_Directory>
/home/rochoa/Projects/OCONDOR

>  <Rbt.Executable>
rbdock ($Id: //depot/dev/client3/rdock/2013.1/src/exe/rbdock.cxx#4 $)

>  <Rbt.Library>
libRbt.so (2013.1, Build901 2013/11/27)

>  <Rbt.Parameter_File>
dock.prm

>  <Rbt.Receptor>
rdock.prm

>  <SCORE>
-20.3046

>  <SCORE.INTER>
-17.3785

>  <SCORE.INTER.CONST>
1

>  <SCORE.INTER.POLAR>
-1.6154

>  <SCORE.INTER.REPUL>
0.0181641

>  <SCORE.INTER.ROT>
10

>  <SCORE.INTER.VDW>
-27.377

>  <SCORE.INTER.norm>
-0.445603

>  <SCORE.INTRA>
-2.92606

>  <SCORE.INTRA.DIHEDRAL>
2.70399

>  <SCORE.INTRA.DIHEDRAL.0>
8.24127

>  <SCORE.INTRA.POLAR>
-1.37649

>  <SCORE.INTRA.POLAR.0>
0

>  <SCORE.INTRA.REPUL>
0

>  <SCORE.INTRA.REPUL.0>
0

>  <SCORE.INTRA.VDW>
0.402017

>  <SCORE.INTRA.VDW.0>
-4.15137

>  <SCORE.INTRA.norm>
-0.0750272

>  <SCORE.RESTR>
0

>  <SCORE.RESTR.CAVITY>
0

>  <SCORE.RESTR.norm>
0

>  <SCORE.SYSTEM>
0

>  <SCORE.SYSTEM.CONST>
0

>  <SCORE.SYSTEM.DIHEDRAL>
0

>  <SCORE.SYSTEM.norm>
0

>  <SCORE.heavy>
39

>  <SCORE.norm>
-0.520631

$$$$
ligands/mol1.pdb
  rDOCK(R)          3D
libRbt.so/2013.1/901 2013/11/27
 45 48  0  0  0  0  0  0  0  0999 V2000
  -12.9534   15.0189   70.8858 C   0  0  0  0  0  0
  -13.4203   15.9634   71.8146 C   0  0  0  0  0  0
  -13.7139   15.5600   73.1067 C   0  0  0  0  0  0
  -13.6354   14.2875   73.5228 N   0  0  0  0  0  0
  -13.1784   13.3840   72.6189 C   0  0  0  0  0  0
  -12.7591   13.6960   71.3228 C   0  0  0  0  0  0
  -12.1305   12.7657   70.4594 N   0  0  0  0  0  0
  -12.0132   11.4053   70.6666 C   0  0  0  0  0  0
  -12.3462   10.8426   71.7000 O   0  0  0  0  0  0
  -11.4647   10.7769   69.5554 N   0  0  0  0  0  0
  -11.1984    9.3937   69.4330 C   0  0  0  0  0  0
  -11.9265    8.4214   70.1226 C   0  0  0  0  0  0
  -11.6889    7.0696   69.9163 C   0  0  0  0  0  0
  -10.6940    6.6684   69.0398 C   0  0  0  0  0  0
   -9.9102    7.6108   68.3589 C   0  0  0  0  0  0
   -8.8049    7.1913   67.4109 C   0  0  0  0  0  0
   -8.8853    7.7751   66.0116 C   0  0  0  0  0  0
   -9.5749    8.9773   65.7857 C   0  0  0  0  0  0
   -9.6713    9.5073   64.4972 C   0  0  0  0  0  0
   -9.0857    8.8220   63.4280 C   0  0  0  0  0  0
   -9.1336    9.5201   61.7987 S   0  0  0  0  0  0
   -7.7619    9.8067   61.3917 O   0  0  0  0  0  0
  -10.0292    8.7523   60.9925 O   0  0  0  0  0  0
   -9.8953   10.9932   62.0772 N   0  0  0  0  0  0
   -8.4260    7.6088   63.6327 C   0  0  0  0  0  0
   -8.3349    7.0827   64.9209 C   0  0  0  0  0  0
  -10.1751    8.9808   68.5654 C   0  0  0  0  0  0
  -12.7103   15.4713   69.4609 C   0  0  0  0  0  0
  -11.2365   15.6641   69.0644 C   0  0  0  0  0  0
  -10.9867   15.4559   67.6517 N   0  0  0  0  0  0
  -10.9174   14.2008   67.0769 C   0  0  0  0  0  0
  -11.0218   13.1674   67.7294 O   0  0  0  0  0  0
  -10.5558   14.2089   65.5865 C   0  0  0  0  0  0
  -10.3746   12.7946   65.0088 C   0  0  0  0  0  0
  -11.6922   12.0802   64.6929 C   0  0  0  0  0  0
  -12.6334   12.9304   63.8440 C   0  0  0  0  0  0
  -12.8274   14.3291   64.4225 C   0  0  0  0  0  0
  -11.5062   15.0363   64.7124 C   0  0  0  0  0  0
  -12.1014   13.0603   62.5269 O   0  0  0  0  0  0
  -11.5562   13.1466   69.7282 H   0  0  0  0  0  0
  -11.4294   11.3162   68.7048 H   0  0  0  0  0  0
  -10.2994   11.4072   61.2360 H   0  0  0  0  0  0
   -9.2356   11.6189   62.5381 H   0  0  0  0  0  0
  -10.9319   16.2733   67.0624 H   0  0  0  0  0  0
  -11.2307   13.4898   62.6100 H   0  0  0  0  0  0
  1  2  2  0  0  0
  1  6  1  0  0  0
  1 28  1  0  0  0
  2  3  1  0  0  0
  3  4  2  0  0  0
  4  5  1  0  0  0
  5  6  2  0  0  0
  6  7  1  0  0  0
  7  8  1  0  0  0
  7 40  1  0  0  0
  8  9  2  0  0  0
  8 10  1  0  0  0
 10 11  1  0  0  0
 10 41  1  0  0  0
 11 12  2  0  0  0
 11 27  1  0  0  0
 12 13  1  0  0  0
 13 14  2  0  0  0
 14 15  1  0  0  0
 15 16  1  0  0  0
 15 27  2  0  0  0
 16 17  1  0  0  0
 17 18  2  0  0  0
 17 26  1  0  0  0
 18 19  1  0  0  0
 19 20  2  0  0  0
 20 21  1  0  0  0
 20 25  1  0  0  0
 21 22  2  0  0  0
 21 23  2  0  0  0
 21 24  1  0  0  0
 24 42  1  0  0  0
 24 43  1  0  0  0
 25 26  2  0  0  0
 28 29  1  0  0  0
 29 30  1  0  0  0
 30 31  1  0  0  0
 30 44  1  0  0  0
 31 32  2  0  0  0
 31 33  1  0  0  0
 33 34  1  0  0  0
 33 38  1  0  0  0
 34 35  1  0  0  0
 35 36  1  0  0  0
 36 37  1  0  0  0
 36 39  1  0  0  0
 37 38  1  0  0  0
 39 45  1  0  0  0
M  END
>  <AUTHOR>
    GENERATED BY OPEN BABEL 2.3.2

>  <CHROM.1>
104.51451084,-171.50125167,27.97545569,125.86087583,24.04955404,115.65052902
-160.40049880,151.86074615,-76.82250430,175.28588076,-59.91101685,-10.98983407
11.42590240,67.00981865,2.75811771,-1.19963151,2.22284574

>  <COMPND>
    mol1_3d.pdb 

>  <MASTER>
        0    0    0    0    0    0    0    0   72    0   72    0

>  <Name>
ligands/mol1.pdb

>  <RI>
2.77152e+07

>  <Rbt.Current_Directory>
/home/rochoa/Projects/OCONDOR

>  <Rbt.Executable>
rbdock ($Id: //depot/dev/client3/rdock/2013.1/src/exe/rbdock.cxx#4 $)

>  <Rbt.Library>
libRbt.so (2013.1, Build901 2013/11/27)

>  <Rbt.Parameter_File>
dock.prm

>  <Rbt.Receptor>
rdock.prm

>  <SCORE>
-20.5841

>  <SCORE.INTER>
-17.2046

>  <SCORE.INTER.CONST>
1

>  <SCORE.INTER.POLAR>
-0.882009

>  <SCORE.INTER.REPUL>
0.000159106

>  <SCORE.INTER.ROT>
10

>  <SCORE.INTER.VDW>
-29.6066

>  <SCORE.INTER.norm>
-0.441144

>  <SCORE.INTRA>
-3.37943

>  <SCORE.INTRA.DIHEDRAL>
4.98007

>  <SCORE.INTRA.DIHEDRAL.0>
8.24127

>  <SCORE.INTRA.POLAR>
-1.95504

>  <SCORE.INTRA.POLAR.0>
0

>  <SCORE.INTRA.REPUL>
0

>  <SCORE.INTRA.REPUL.0>
0

>  <SCORE.INTRA.VDW>
0.777666

>  <SCORE.INTRA.VDW.0>
-4.15137

>  <SCORE.INTRA.norm>
-0.086652

>  <SCORE.RESTR>
0

>  <SCORE.RESTR.CAVITY>
0

>  <SCORE.RESTR.norm>
0

>  <SCORE.SYSTEM>
0

>  <SCORE.SYSTEM.CONST>
0

>  <SCORE.SYSTEM.DIHEDRAL>
0

>  <SCORE.SYSTEM.norm>
0

>  <SCORE.heavy>
39

>  <SCORE.norm>
-0.527796

$$$$
ligands/mol1.pdb
  rDOCK(R)          3D
libRbt.so/2013.1/901 2013/11/27
 45 48  0  0  0  0  0  0  0  0999 V2000
  -10.4099   14.7430   66.5819 C   0  0  0  0  0  0
  -10.2350   16.0853   66.2074 C   0  0  0  0  0  0
  -10.8900   17.0801   66.9143 C   0  0  0  0  0  0
  -11.7449   16.8370   67.9185 N   0  0  0  0  0  0
  -11.9027   15.5370   68.2756 C   0  0  0  0  0  0
  -11.2173   14.4639   67.6995 C   0  0  0  0  0  0
  -11.2736   13.1407   68.2013 N   0  0  0  0  0  0
  -11.9355   12.7235   69.3395 C   0  0  0  0  0  0
  -12.4714   13.4841   70.1330 O   0  0  0  0  0  0
  -11.9005   11.3396   69.4580 N   0  0  0  0  0  0
  -12.4706   10.5832   70.5076 C   0  0  0  0  0  0
  -13.2710   11.1536   71.5001 C   0  0  0  0  0  0
  -13.8786   10.3671   72.4690 C   0  0  0  0  0  0
  -13.6677    8.9980   72.4801 C   0  0  0  0  0  0
  -12.8373    8.3888   71.5285 C   0  0  0  0  0  0
  -12.5795    6.8956   71.5363 C   0  0  0  0  0  0
  -11.8597    6.3613   72.7618 C   0  0  0  0  0  0
  -11.0972    7.2239   73.5658 C   0  0  0  0  0  0
  -10.4146    6.7340   74.6814 C   0  0  0  0  0  0
  -10.4854    5.3706   74.9846 C   0  0  0  0  0  0
   -9.6874    4.7466   76.4399 S   0  0  0  0  0  0
   -8.2506    4.9506   76.2876 O   0  0  0  0  0  0
  -10.4085    5.1924   77.5901 O   0  0  0  0  0  0
   -9.9789    3.0955   76.3118 N   0  0  0  0  0  0
  -11.2121    4.4957   74.1752 C   0  0  0  0  0  0
  -11.8896    4.9897   73.0609 C   0  0  0  0  0  0
  -12.2408    9.1987   70.5397 C   0  0  0  0  0  0
   -9.7413   13.6707   65.7470 C   0  0  0  0  0  0
  -10.4003   13.3749   64.3888 C   0  0  0  0  0  0
   -9.5283   12.6789   63.4632 N   0  0  0  0  0  0
   -9.9419   11.5976   62.7082 C   0  0  0  0  0  0
  -11.0686   11.1209   62.7967 O   0  0  0  0  0  0
   -8.8338   10.9581   61.8624 C   0  0  0  0  0  0
   -7.6847   10.3917   62.7141 C   0  0  0  0  0  0
   -7.9948    9.0326   63.3488 C   0  0  0  0  0  0
   -8.5138    8.0153   62.3364 C   0  0  0  0  0  0
   -9.6640    8.5688   61.5001 C   0  0  0  0  0  0
   -9.3328    9.9129   60.8572 C   0  0  0  0  0  0
   -7.4583    7.6401   61.4534 O   0  0  0  0  0  0
  -10.6255   12.4816   67.8074 H   0  0  0  0  0  0
  -11.6127   10.8248   68.6408 H   0  0  0  0  0  0
   -9.7143    2.5701   77.1462 H   0  0  0  0  0  0
   -9.5167    2.7474   75.4725 H   0  0  0  0  0  0
   -8.6020   13.0544   63.3231 H   0  0  0  0  0  0
   -6.7619    7.2286   61.9968 H   0  0  0  0  0  0
  1  2  2  0  0  0
  1  6  1  0  0  0
  1 28  1  0  0  0
  2  3  1  0  0  0
  3  4  2  0  0  0
  4  5  1  0  0  0
  5  6  2  0  0  0
  6  7  1  0  0  0
  7  8  1  0  0  0
  7 40  1  0  0  0
  8  9  2  0  0  0
  8 10  1  0  0  0
 10 11  1  0  0  0
 10 41  1  0  0  0
 11 12  2  0  0  0
 11 27  1  0  0  0
 12 13  1  0  0  0
 13 14  2  0  0  0
 14 15  1  0  0  0
 15 16  1  0  0  0
 15 27  2  0  0  0
 16 17  1  0  0  0
 17 18  2  0  0  0
 17 26  1  0  0  0
 18 19  1  0  0  0
 19 20  2  0  0  0
 20 21  1  0  0  0
 20 25  1  0  0  0
 21 22  2  0  0  0
 21 23  2  0  0  0
 21 24  1  0  0  0
 24 42  1  0  0  0
 24 43  1  0  0  0
 25 26  2  0  0  0
 28 29  1  0  0  0
 29 30  1  0  0  0
 30 31  1  0  0  0
 30 44  1  0  0  0
 31 32  2  0  0  0
 31 33  1  0  0  0
 33 34  1  0  0  0
 33 38  1  0  0  0
 34 35  1  0  0  0
 35 36  1  0  0  0
 36 37  1  0  0  0
 36 39  1  0  0  0
 37 38  1  0  0  0
 39 45  1  0  0  0
M  END
>  <AUTHOR>
    GENERATED BY OPEN BABEL 2.3.2

>  <CHROM.1>
-75.07956163,174.97661394,6.80943373,-63.62928601,-21.10140079,-63.94475720
-171.05245962,161.69685949,134.99763449,61.77014263,61.47830378,-10.68114160
9.79257789,69.05060627,1.38366332,1.17318844,-0.86877210

>  <COMPND>
    mol1_3d.pdb 

>  <MASTER>
        0    0    0    0    0    0    0    0   72    0   72    0

>  <Name>
ligands/mol1.pdb

>  <RI>
2.77152e+07

>  <Rbt.Current_Directory>
/home/rochoa/Projects/OCONDOR

>  <Rbt.Executable>
rbdock ($Id: //depot/dev/client3/rdock/2013.1/src/exe/rbdock.cxx#4 $)

>  <Rbt.Library>
libRbt.so (2013.1, Build901 2013/11/27)

>  <Rbt.Parameter_File>
dock.prm

>  <Rbt.Receptor>
rdock.prm

>  <SCORE>
-15.0379

>  <SCORE.INTER>
-16.7474

>  <SCORE.INTER.CONST>
1

>  <SCORE.INTER.POLAR>
-0.650318

>  <SCORE.INTER.REPUL>
0

>  <SCORE.INTER.ROT>
10

>  <SCORE.INTER.VDW>
-29.9363

>  <SCORE.INTER.norm>
-0.429421

>  <SCORE.INTRA>
1.70948

>  <SCORE.INTRA.DIHEDRAL>
-0.548914

>  <SCORE.INTRA.DIHEDRAL.0>
8.24127

>  <SCORE.INTRA.POLAR>
0

>  <SCORE.INTRA.POLAR.0>
0

>  <SCORE.INTRA.REPUL>
0

>  <SCORE.INTRA.REPUL.0>
0

>  <SCORE.INTRA.VDW>
1.98394

>  <SCORE.INTRA.VDW.0>
-4.15137

>  <SCORE.INTRA.norm>
0.0438329

>  <SCORE.RESTR>
0

>  <SCORE.RESTR.CAVITY>
0

>  <SCORE.RESTR.norm>
0

>  <SCORE.SYSTEM>
0

>  <SCORE.SYSTEM.CONST>
0

>  <SCORE.SYSTEM.DIHEDRAL>
0

>  <SCORE.SYSTEM.norm>
0

>  <SCORE.heavy>
39

>  <SCORE.norm>
-0.385588

$$$$
ligands/mol1.pdb
  rDOCK(R)          3D
libRbt.so/2013.1/901 2013/11/27
 45 48  0  0  0  0  0  0  0  0999 V2000
  -12.4812   13.2364   68.5479 C   0  0  0  0  0  0
  -12.5957   14.4122   67.7883 C   0  0  0  0  0  0
  -12.4580   14.3493   66.4115 C   0  0  0  0  0  0
  -12.1584   13.2240   65.7463 N   0  0  0  0  0  0
  -12.0550   12.0929   66.4893 C   0  0  0  0  0  0
  -12.2729   12.0227   67.8680 C   0  0  0  0  0  0
  -12.3243   10.8055   68.5903 N   0  0  0  0  0  0
  -11.5726   10.4803   69.7023 C   0  0  0  0  0  0
  -10.6682   11.1771   70.1405 O   0  0  0  0  0  0
  -11.9774    9.2648   70.2401 N   0  0  0  0  0  0
  -11.4159    8.6318   71.3728 C   0  0  0  0  0  0
  -12.1227    7.7121   72.1509 C   0  0  0  0  0  0
  -11.5127    7.0513   73.2081 C   0  0  0  0  0  0
  -10.1923    7.3254   73.5251 C   0  0  0  0  0  0
   -9.4580    8.2727   72.7975 C   0  0  0  0  0  0
   -8.0189    8.5998   73.1414 C   0  0  0  0  0  0
   -7.6152    8.3443   74.5826 C   0  0  0  0  0  0
   -7.3128    9.4198   75.4333 C   0  0  0  0  0  0
   -6.9191    9.1898   76.7533 C   0  0  0  0  0  0
   -6.8147    7.8753   77.2189 C   0  0  0  0  0  0
   -6.3904    7.5692   78.9131 S   0  0  0  0  0  0
   -5.9464    8.8291   79.5003 O   0  0  0  0  0  0
   -7.4092    6.7623   79.5068 O   0  0  0  0  0  0
   -5.0384    6.5815   78.7568 N   0  0  0  0  0  0
   -7.0797    6.7955   76.3748 C   0  0  0  0  0  0
   -7.4698    7.0306   75.0568 C   0  0  0  0  0  0
  -10.0861    8.9234   71.7150 C   0  0  0  0  0  0
  -12.5624   13.3445   70.0565 C   0  0  0  0  0  0
  -12.0038   14.6430   70.6634 C   0  0  0  0  0  0
  -10.5759   14.8028   70.4706 N   0  0  0  0  0  0
  -10.0319   15.7627   69.6381 C   0  0  0  0  0  0
  -10.7208   16.5249   68.9680 O   0  0  0  0  0  0
   -8.5047   15.6972   69.5135 C   0  0  0  0  0  0
   -7.9925   14.2834   69.1889 C   0  0  0  0  0  0
   -8.1369   13.8948   67.7143 C   0  0  0  0  0  0
   -7.5588   14.9452   66.7700 C   0  0  0  0  0  0
   -8.0767   16.3469   67.0796 C   0  0  0  0  0  0
   -7.9070   16.7278   68.5478 C   0  0  0  0  0  0
   -6.1370   14.9579   66.8836 O   0  0  0  0  0  0
  -12.8067   10.0412   68.1512 H   0  0  0  0  0  0
  -12.8578    8.8989   69.9136 H   0  0  0  0  0  0
   -5.2233    5.7173   78.2457 H   0  0  0  0  0  0
   -4.6531    6.4077   79.6844 H   0  0  0  0  0  0
   -9.9627   14.2269   71.0281 H   0  0  0  0  0  0
   -5.8233   14.0623   66.6623 H   0  0  0  0  0  0
  1  2  2  0  0  0
  1  6  1  0  0  0
  1 28  1  0  0  0
  2  3  1  0  0  0
  3  4  2  0  0  0
  4  5  1  0  0  0
  5  6  2  0  0  0
  6  7  1  0  0  0
  7  8  1  0  0  0
  7 40  1  0  0  0
  8  9  2  0  0  0
  8 10  1  0  0  0
 10 11  1  0  0  0
 10 41  1  0  0  0
 11 12  2  0  0  0
 11 27  1  0  0  0
 12 13  1  0  0  0
 13 14  2  0  0  0
 14 15  1  0  0  0
 15 16  1  0  0  0
 15 27  2  0  0  0
 16 17  1  0  0  0
 17 18  2  0  0  0
 17 26  1  0  0  0
 18 19  1  0  0  0
 19 20  2  0  0  0
 20 21  1  0  0  0
 20 25  1  0  0  0
 21 22  2  0  0  0
 21 23  2  0  0  0
 21 24  1  0  0  0
 24 42  1  0  0  0
 24 43  1  0  0  0
 25 26  2  0  0  0
 28 29  1  0  0  0
 29 30  1  0  0  0
 30 31  1  0  0  0
 30 44  1  0  0  0
 31 32  2  0  0  0
 31 33  1  0  0  0
 33 34  1  0  0  0
 33 38  1  0  0  0
 34 35  1  0  0  0
 35 36  1  0  0  0
 36 37  1  0  0  0
 36 39  1  0  0  0
 37 38  1  0  0  0
 39 45  1  0  0  0
M  END
>  <AUTHOR>
    GENERATED BY OPEN BABEL 2.3.2

>  <CHROM.1>
-32.41987587,-55.66046348,155.90727876,-25.32466792,-111.84936300,-11.41416049
-59.39081288,-64.93768286,110.91342061,50.04067893,58.64636323,-9.36644147
11.14095611,71.73827673,1.91619114,-0.62729563,-0.73722806

>  <COMPND>
    mol1_3d.pdb 

>  <MASTER>
        0    0    0    0    0    0    0    0   72    0   72    0

>  <Name>
ligands/mol1.pdb

>  <RI>
2.77152e+07

>  <Rbt.Current_Directory>
/home/rochoa/Projects/OCONDOR

>  <Rbt.Executable>
rbdock ($Id: //depot/dev/client3/rdock/2013.1/src/exe/rbdock.cxx#4 $)

>  <Rbt.Library>
libRbt.so (2013.1, Build901 2013/11/27)

>  <Rbt.Parameter_File>
dock.prm

>  <Rbt.Receptor>
rdock.prm

>  <SCORE>
-11.7657

>  <SCORE.INTER>
-15.2704

>  <SCORE.INTER.CONST>
1

>  <SCORE.INTER.POLAR>
-1.89407

>  <SCORE.INTER.REPUL>
0

>  <SCORE.INTER.ROT>
10

>  <SCORE.INTER.VDW>
-24.2306

>  <SCORE.INTER.norm>
-0.391549

>  <SCORE.INTRA>
3.50469

>  <SCORE.INTRA.DIHEDRAL>
5.63937

>  <SCORE.INTRA.DIHEDRAL.0>
8.24127

>  <SCORE.INTRA.POLAR>
0

>  <SCORE.INTRA.POLAR.0>
0

>  <SCORE.INTRA.REPUL>
0

>  <SCORE.INTRA.REPUL.0>
0

>  <SCORE.INTRA.VDW>
0.685003

>  <SCORE.INTRA.VDW.0>
-4.15137

>  <SCORE.INTRA.norm>
0.0898638

>  <SCORE.RESTR>
0

>  <SCORE.RESTR.CAVITY>
0

>  <SCORE.RESTR.norm>
0

>  <SCORE.SYSTEM>
0

>  <SCORE.SYSTEM.CONST>
0

>  <SCORE.SYSTEM.DIHEDRAL>
0

>  <SCORE.SYSTEM.norm>
0

>  <SCORE.heavy>
39

>  <SCORE.norm>
-0.301685

$$$$
ligands/mol1.pdb
  rDOCK(R)          3D
libRbt.so/2013.1/901 2013/11/27
 45 48  0  0  0  0  0  0  0  0999 V2000
  -11.1710   12.0299   64.6039 C   0  0  0  0  0  0
  -10.8332   12.5233   63.3330 C   0  0  0  0  0  0
   -9.9091   11.8392   62.5607 C   0  0  0  0  0  0
   -9.2577   10.7442   62.9792 N   0  0  0  0  0  0
   -9.5953   10.2731   64.2065 C   0  0  0  0  0  0
  -10.5834   10.8240   65.0271 C   0  0  0  0  0  0
  -11.0323   10.2168   66.2253 N   0  0  0  0  0  0
  -10.7809    8.9208   66.6312 C   0  0  0  0  0  0
  -10.2220    8.0854   65.9348 O   0  0  0  0  0  0
  -11.2523    8.7013   67.9197 N   0  0  0  0  0  0
  -11.1691    7.4854   68.6364 C   0  0  0  0  0  0
  -10.5449    6.3471   68.1210 C   0  0  0  0  0  0
  -10.4125    5.1959   68.8851 C   0  0  0  0  0  0
  -10.9333    5.1542   70.1682 C   0  0  0  0  0  0
  -11.6053    6.2593   70.7097 C   0  0  0  0  0  0
  -12.1982    6.2258   72.1038 C   0  0  0  0  0  0
  -11.2054    6.3812   73.2420 C   0  0  0  0  0  0
  -10.3838    7.5178   73.3132 C   0  0  0  0  0  0
   -9.4529    7.6554   74.3451 C   0  0  0  0  0  0
   -9.3353    6.6428   75.3024 C   0  0  0  0  0  0
   -8.2127    6.8375   76.6610 S   0  0  0  0  0  0
   -8.9429    6.5537   77.8922 O   0  0  0  0  0  0
   -6.9775    6.1970   76.3361 O   0  0  0  0  0  0
   -7.9101    8.4912   76.6239 N   0  0  0  0  0  0
  -10.1219    5.4921   75.2252 C   0  0  0  0  0  0
  -11.0479    5.3584   74.1912 C   0  0  0  0  0  0
  -11.7166    7.4279   69.9277 C   0  0  0  0  0  0
  -12.1280   12.8364   65.4571 C   0  0  0  0  0  0
  -11.8097   14.3363   65.5807 C   0  0  0  0  0  0
  -10.4528   14.6047   66.0147 N   0  0  0  0  0  0
  -10.1509   15.4708   67.0486 C   0  0  0  0  0  0
  -11.0092   16.1088   67.6495 O   0  0  0  0  0  0
   -8.6490   15.6749   67.2823 C   0  0  0  0  0  0
   -7.9435   16.3372   66.0863 C   0  0  0  0  0  0
   -8.1452   17.8536   66.0093 C   0  0  0  0  0  0
   -7.8252   18.5571   67.3254 C   0  0  0  0  0  0
   -8.5355   17.9120   68.5120 C   0  0  0  0  0  0
   -8.3082   16.4046   68.5875 C   0  0  0  0  0  0
   -6.4197   18.5070   67.5636 O   0  0  0  0  0  0
  -11.7496   10.7021   66.7349 H   0  0  0  0  0  0
  -11.5019    9.5190   68.4533 H   0  0  0  0  0  0
   -8.7561    9.0604   76.6745 H   0  0  0  0  0  0
   -7.3510    8.7015   75.7978 H   0  0  0  0  0  0
   -9.7109   14.0765   65.5797 H   0  0  0  0  0  0
   -6.2474   19.0193   68.3744 H   0  0  0  0  0  0
  1  2  2  0  0  0
  1  6  1  0  0  0
  1 28  1  0  0  0
  2  3  1  0  0  0
  3  4  2  0  0  0
  4  5  1  0  0  0
  5  6  2  0  0  0
  6  7  1  0  0  0
  7  8  1  0  0  0
  7 40  1  0  0  0
  8  9  2  0  0  0
  8 10  1  0  0  0
 10 11  1  0  0  0
 10 41  1  0  0  0
 11 12  2  0  0  0
 11 27  1  0  0  0
 12 13  1  0  0  0
 13 14  2  0  0  0
 14 15  1  0  0  0
 15 16  1  0  0  0
 15 27  2  0  0  0
 16 17  1  0  0  0
 17 18  2  0  0  0
 17 26  1  0  0  0
 18 19  1  0  0  0
 19 20  2  0  0  0
 20 21  1  0  0  0
 20 25  1  0  0  0
 21 22  2  0  0  0
 21 23  2  0  0  0
 21 24  1  0  0  0
 24 42  1  0  0  0
 24 43  1  0  0  0
 25 26  2  0  0  0
 28 29  1  0  0  0
 29 30  1  0  0  0
 30 31  1  0  0  0
 30 44  1  0  0  0
 31 32  2  0  0  0
 31 33  1  0  0  0
 33 34  1  0  0  0
 33 38  1  0  0  0
 34 35  1  0  0  0
 35 36  1  0  0  0
 36 37  1  0  0  0
 36 39  1  0  0  0
 37 38  1  0  0  0
 39 45  1  0  0  0
M  END
>  <AUTHOR>
    GENERATED BY OPEN BABEL 2.3.2

>  <CHROM.1>
-48.51526407,165.13582438,2.08434399,77.20472185,57.62076309,129.32277547
55.61929443,-53.03974216,-130.47980532,63.77706521,175.97223728,-9.83933196
10.48633970,69.38305432,1.54818898,-1.18399180,-0.81695821

>  <COMPND>
    mol1_3d.pdb 

>  <MASTER>
        0    0    0    0    0    0    0    0   72    0   72    0

>  <Name>
ligands/mol1.pdb

>  <RI>
2.77152e+07

>  <Rbt.Current_Directory>
/home/rochoa/Projects/OCONDOR

>  <Rbt.Executable>
rbdock ($Id: //depot/dev/client3/rdock/2013.1/src/exe/rbdock.cxx#4 $)

>  <Rbt.Library>
libRbt.so (2013.1, Build901 2013/11/27)

>  <Rbt.Parameter_File>
dock.prm

>  <Rbt.Receptor>
rdock.prm

>  <SCORE>
-13.3093

>  <SCORE.INTER>
-14.0755

>  <SCORE.INTER.CONST>
1

>  <SCORE.INTER.POLAR>
-0.911441

>  <SCORE.INTER.REPUL>
0.0395967

>  <SCORE.INTER.ROT>
10

>  <SCORE.INTER.VDW>
-26.5746

>  <SCORE.INTER.norm>
-0.36091

>  <SCORE.INTRA>
0.766222

>  <SCORE.INTRA.DIHEDRAL>
-1.39477

>  <SCORE.INTRA.DIHEDRAL.0>
8.24127

>  <SCORE.INTRA.POLAR>
0

>  <SCORE.INTRA.POLAR.0>
0

>  <SCORE.INTRA.REPUL>
0

>  <SCORE.INTRA.REPUL.0>
0

>  <SCORE.INTRA.VDW>
1.46361

>  <SCORE.INTRA.VDW.0>
-4.15137

>  <SCORE.INTRA.norm>
0.0196467

>  <SCORE.RESTR>
0

>  <SCORE.RESTR.CAVITY>
0

>  <SCORE.RESTR.norm>
0

>  <SCORE.SYSTEM>
0

>  <SCORE.SYSTEM.CONST>
0

>  <SCORE.SYSTEM.DIHEDRAL>
0

>  <SCORE.SYSTEM.norm>
0

>  <SCORE.heavy>
39

>  <SCORE.norm>
-0.341263

$$$$
ligands/mol1.pdb
  rDOCK(R)          3D
libRbt.so/2013.1/901 2013/11/27
 45 48  0  0  0  0  0  0  0  0999 V2000
  -11.5925   16.0138   69.7474 C   0  0  0  0  0  0
  -11.9128   16.5388   71.0101 C   0  0  0  0  0  0
  -12.3492   15.6866   72.0109 C   0  0  0  0  0  0
  -12.5462   14.3721   71.8328 N   0  0  0  0  0  0
  -12.2289   13.8744   70.6105 C   0  0  0  0  0  0
  -11.6872   14.6227   69.5618 C   0  0  0  0  0  0
  -11.2095   14.0495   68.3580 N   0  0  0  0  0  0
  -10.9033   12.7190   68.1491 C   0  0  0  0  0  0
  -10.8994   11.8742   69.0331 O   0  0  0  0  0  0
  -10.5973   12.4811   66.8148 N   0  0  0  0  0  0
  -10.2303   11.2342   66.2585 C   0  0  0  0  0  0
  -10.2381   10.9900   64.8832 C   0  0  0  0  0  0
   -9.7952    9.7792   64.3691 C   0  0  0  0  0  0
   -9.3679    8.7789   65.2269 C   0  0  0  0  0  0
   -9.3837    8.9654   66.6165 C   0  0  0  0  0  0
   -8.9383    7.8762   67.5712 C   0  0  0  0  0  0
   -9.8776    7.5971   68.7310 C   0  0  0  0  0  0
  -11.0083    6.7854   68.5454 C   0  0  0  0  0  0
  -11.8881    6.5436   69.6027 C   0  0  0  0  0  0
  -11.6408    7.1293   70.8483 C   0  0  0  0  0  0
  -12.7056    6.7707   72.2201 S   0  0  0  0  0  0
  -14.0743    6.6958   71.7196 O   0  0  0  0  0  0
  -12.1166    5.7312   73.0037 O   0  0  0  0  0  0
  -12.5785    8.1779   73.1321 N   0  0  0  0  0  0
  -10.5392    7.9654   71.0385 C   0  0  0  0  0  0
   -9.6654    8.2057   69.9786 C   0  0  0  0  0  0
   -9.8199   10.2074   67.1233 C   0  0  0  0  0  0
  -11.1887   16.9765   68.6499 C   0  0  0  0  0  0
   -9.6749   17.1464   68.4352 C   0  0  0  0  0  0
   -9.3218   18.3837   67.7675 N   0  0  0  0  0  0
   -8.2489   18.4923   66.9029 C   0  0  0  0  0  0
   -7.4905   17.5571   66.6685 O   0  0  0  0  0  0
   -8.0034   19.9122   66.3777 C   0  0  0  0  0  0
   -7.8842   20.9529   67.5044 C   0  0  0  0  0  0
   -6.5176   20.9643   68.1961 C   0  0  0  0  0  0
   -5.3586   21.0544   67.2071 C   0  0  0  0  0  0
   -5.4656   20.0134   66.0965 C   0  0  0  0  0  0
   -6.8251   20.0280   65.4028 C   0  0  0  0  0  0
   -5.3426   22.3486   66.6077 O   0  0  0  0  0  0
  -10.8850   14.6876   67.6530 H   0  0  0  0  0  0
  -10.8376   13.2093   66.1609 H   0  0  0  0  0  0
  -11.6140    8.4549   73.3196 H   0  0  0  0  0  0
  -13.1210    8.0618   73.9873 H   0  0  0  0  0  0
   -9.9360   19.1742   67.8950 H   0  0  0  0  0  0
   -5.0974   22.9846   67.3041 H   0  0  0  0  0  0
  1  2  2  0  0  0
  1  6  1  0  0  0
  1 28  1  0  0  0
  2  3  1  0  0  0
  3  4  2  0  0  0
  4  5  1  0  0  0
  5  6  2  0  0  0
  6  7  1  0  0  0
  7  8  1  0  0  0
  7 40  1  0  0  0
  8  9  2  0  0  0
  8 10  1  0  0  0
 10 11  1  0  0  0
 10 41  1  0  0  0
 11 12  2  0  0  0
 11 27  1  0  0  0
 12 13  1  0  0  0
 13 14  2  0  0  0
 14 15  1  0  0  0
 15 16  1  0  0  0
 15 27  2  0  0  0
 16 17  1  0  0  0
 17 18  2  0  0  0
 17 26  1  0  0  0
 18 19  1  0  0  0
 19 20  2  0  0  0
 20 21  1  0  0  0
 20 25  1  0  0  0
 21 22  2  0  0  0
 21 23  2  0  0  0
 21 24  1  0  0  0
 24 42  1  0  0  0
 24 43  1  0  0  0
 25 26  2  0  0  0
 28 29  1  0  0  0
 29 30  1  0  0  0
 30 31  1  0  0  0
 30 44  1  0  0  0
 31 32  2  0  0  0
 31 33  1  0  0  0
 33 34  1  0  0  0
 33 38  1  0  0  0
 34 35  1  0  0  0
 35 36  1  0  0  0
 36 37  1  0  0  0
 36 39  1  0  0  0
 37 38  1  0  0  0
 39 45  1  0  0  0
M  END
>  <AUTHOR>
    GENERATED BY OPEN BABEL 2.3.2

>  <CHROM.1>
97.43984047,161.91469266,164.67501634,-131.92068856,81.01343405,-38.39625033
-51.27000504,-158.39255010,-146.68547829,53.10658723,68.36491926,-10.10203939
13.07469857,68.71509667,0.96044036,0.99049709,0.26947320

>  <COMPND>
    mol1_3d.pdb 

>  <MASTER>
        0    0    0    0    0    0    0    0   72    0   72    0

>  <Name>
ligands/mol1.pdb

>  <RI>
2.77152e+07

>  <Rbt.Current_Directory>
/home/rochoa/Projects/OCONDOR

>  <Rbt.Executable>
rbdock ($Id: //depot/dev/client3/rdock/2013.1/src/exe/rbdock.cxx#4 $)

>  <Rbt.Library>
libRbt.so (2013.1, Build901 2013/11/27)

>  <Rbt.Parameter_File>
dock.prm

>  <Rbt.Receptor>
rdock.prm

>  <SCORE>
-11.7887

>  <SCORE.INTER>
-13.6803

>  <SCORE.INTER.CONST>
1

>  <SCORE.INTER.POLAR>
-1.57033

>  <SCORE.INTER.REPUL>
0

>  <SCORE.INTER.ROT>
10

>  <SCORE.INTER.VDW>
-23.7412

>  <SCORE.INTER.norm>
-0.350778

>  <SCORE.INTRA>
1.89168

>  <SCORE.INTRA.DIHEDRAL>
0.257498

>  <SCORE.INTRA.DIHEDRAL.0>
8.24127

>  <SCORE.INTRA.POLAR>
0

>  <SCORE.INTRA.POLAR.0>
0

>  <SCORE.INTRA.REPUL>
0

>  <SCORE.INTRA.REPUL.0>
0

>  <SCORE.INTRA.VDW>
1.76293

>  <SCORE.INTRA.VDW.0>
-4.15137

>  <SCORE.INTRA.norm>
0.0485045

>  <SCORE.RESTR>
0

>  <SCORE.RESTR.CAVITY>
0

>  <SCORE.RESTR.norm>
0

>  <SCORE.SYSTEM>
0

>  <SCORE.SYSTEM.CONST>
0

>  <SCORE.SYSTEM.DIHEDRAL>
0

>  <SCORE.SYSTEM.norm>
0

>  <SCORE.heavy>
39

>  <SCORE.norm>
-0.302273

$$$$
ligands/mol1.pdb
  rDOCK(R)          3D
libRbt.so/2013.1/901 2013/11/27
 45 48  0  0  0  0  0  0  0  0999 V2000
   -8.2770   13.0239   68.8791 C   0  0  0  0  0  0
   -9.1501   14.1232   68.9228 C   0  0  0  0  0  0
  -10.5155   13.9053   69.0044 C   0  0  0  0  0  0
  -11.0750   12.6867   68.9855 N   0  0  0  0  0  0
  -10.2221   11.6314   68.9482 C   0  0  0  0  0  0
   -8.8283   11.7327   68.9653 C   0  0  0  0  0  0
   -7.9652   10.6173   69.0956 N   0  0  0  0  0  0
   -8.3473    9.3017   69.2703 C   0  0  0  0  0  0
   -9.5033    8.9466   69.4520 O   0  0  0  0  0  0
   -7.2489    8.4522   69.2192 N   0  0  0  0  0  0
   -7.2808    7.0468   69.3699 C   0  0  0  0  0  0
   -6.1470    6.2456   69.2158 C   0  0  0  0  0  0
   -6.1999    4.8785   69.4497 C   0  0  0  0  0  0
   -7.3985    4.2847   69.8099 C   0  0  0  0  0  0
   -8.5706    5.0443   69.9343 C   0  0  0  0  0  0
   -9.8947    4.4096   70.3086 C   0  0  0  0  0  0
  -10.9811    5.3732   70.7518 C   0  0  0  0  0  0
  -11.2705    5.5330   72.1167 C   0  0  0  0  0  0
  -12.2839    6.4009   72.5290 C   0  0  0  0  0  0
  -13.0200    7.1015   71.5683 C   0  0  0  0  0  0
  -14.2578    8.2641   72.0786 S   0  0  0  0  0  0
  -14.5035    9.1766   70.9666 O   0  0  0  0  0  0
  -15.3100    7.5592   72.7401 O   0  0  0  0  0  0
  -13.4474    9.1292   73.2713 N   0  0  0  0  0  0
  -12.7659    6.9272   70.2068 C   0  0  0  0  0  0
  -11.7546    6.0573   69.8003 C   0  0  0  0  0  0
   -8.4974    6.4350   69.7105 C   0  0  0  0  0  0
   -6.7948   13.2891   68.7156 C   0  0  0  0  0  0
   -6.3991   14.1344   67.4927 C   0  0  0  0  0  0
   -6.8766   15.5017   67.5570 N   0  0  0  0  0  0
   -7.9136   15.9740   66.7748 C   0  0  0  0  0  0
   -8.4803   15.2796   65.9374 O   0  0  0  0  0  0
   -8.1963   17.4723   66.9399 C   0  0  0  0  0  0
   -9.1225   18.0291   65.8450 C   0  0  0  0  0  0
  -10.6052   17.7170   66.0693 C   0  0  0  0  0  0
  -11.0805   18.0949   67.4695 C   0  0  0  0  0  0
  -10.1724   17.5314   68.5588 C   0  0  0  0  0  0
   -8.7009   17.8681   68.3330 C   0  0  0  0  0  0
  -11.1053   19.5153   67.5977 O   0  0  0  0  0  0
   -6.9950   10.8160   69.2655 H   0  0  0  0  0  0
   -6.3927    8.8444   68.8606 H   0  0  0  0  0  0
  -12.5673    9.5358   72.9514 H   0  0  0  0  0  0
  -13.3223    8.5256   74.0832 H   0  0  0  0  0  0
   -6.4709   16.1049   68.2571 H   0  0  0  0  0  0
  -11.7539   19.8505   66.9523 H   0  0  0  0  0  0
  1  2  2  0  0  0
  1  6  1  0  0  0
  1 28  1  0  0  0
  2  3  1  0  0  0
  3  4  2  0  0  0
  4  5  1  0  0  0
  5  6  2  0  0  0
  6  7  1  0  0  0
  7  8  1  0  0  0
  7 40  1  0  0  0
  8  9  2  0  0  0
  8 10  1  0  0  0
 10 11  1  0  0  0
 10 41  1  0  0  0
 11 12  2  0  0  0
 11 27  1  0  0  0
 12 13  1  0  0  0
 13 14  2  0  0  0
 14 15  1  0  0  0
 15 16  1  0  0  0
 15 27  2  0  0  0
 16 17  1  0  0  0
 17 18  2  0  0  0
 17 26  1  0  0  0
 18 19  1  0  0  0
 19 20  2  0  0  0
 20 21  1  0  0  0
 20 25  1  0  0  0
 21 22  2  0  0  0
 21 23  2  0  0  0
 21 24  1  0  0  0
 24 42  1  0  0  0
 24 43  1  0  0  0
 25 26  2  0  0  0
 28 29  1  0  0  0
 29 30  1  0  0  0
 30 31  1  0  0  0
 30 44  1  0  0  0
 31 32  2  0  0  0
 31 33  1  0  0  0
 33 34  1  0  0  0
 33 38  1  0  0  0
 34 35  1  0  0  0
 35 36  1  0  0  0
 36 37  1  0  0  0
 36 39  1  0  0  0
 37 38  1  0  0  0
 39 45  1  0  0  0
M  END
>  <AUTHOR>
    GENERATED BY OPEN BABEL 2.3.2

>  <CHROM.1>
-55.31776480,175.92472170,175.50438900,164.90038326,-101.48925173,159.34284275
55.20344303,66.11547892,-107.22848810,167.01404457,62.65766581,-9.94951047
10.92202759,69.36852501,-1.39807768,-0.38815684,2.87870124

>  <COMPND>
    mol1_3d.pdb 

>  <MASTER>
        0    0    0    0    0    0    0    0   72    0   72    0

>  <Name>
ligands/mol1.pdb

>  <RI>
2.77152e+07

>  <Rbt.Current_Directory>
/home/rochoa/Projects/OCONDOR

>  <Rbt.Executable>
rbdock ($Id: //depot/dev/client3/rdock/2013.1/src/exe/rbdock.cxx#4 $)

>  <Rbt.Library>
libRbt.so (2013.1, Build901 2013/11/27)

>  <Rbt.Parameter_File>
dock.prm

>  <Rbt.Receptor>
rdock.prm

>  <SCORE>
-10.1421

>  <SCORE.INTER>
-9.73873

>  <SCORE.INTER.CONST>
1

>  <SCORE.INTER.POLAR>
-1.37141

>  <SCORE.INTER.REPUL>
0.154769

>  <SCORE.INTER.ROT>
10

>  <SCORE.INTER.VDW>
-21.2498

>  <SCORE.INTER.norm>
-0.249711

>  <SCORE.INTRA>
-0.403355

>  <SCORE.INTRA.DIHEDRAL>
-2.35465

>  <SCORE.INTRA.DIHEDRAL.0>
8.24127

>  <SCORE.INTRA.POLAR>
0

>  <SCORE.INTRA.POLAR.0>
0

>  <SCORE.INTRA.REPUL>
0

>  <SCORE.INTRA.REPUL.0>
0

>  <SCORE.INTRA.VDW>
0.773972

>  <SCORE.INTRA.VDW.0>
-4.15137

>  <SCORE.INTRA.norm>
-0.0103424

>  <SCORE.RESTR>
0

>  <SCORE.RESTR.CAVITY>
0

>  <SCORE.RESTR.norm>
0

>  <SCORE.SYSTEM>
0

>  <SCORE.SYSTEM.CONST>
0

>  <SCORE.SYSTEM.DIHEDRAL>
0

>  <SCORE.SYSTEM.norm>
0

>  <SCORE.heavy>
39

>  <SCORE.norm>
-0.260053

$$$$
ligands/mol1.pdb
  rDOCK(R)          3D
libRbt.so/2013.1/901 2013/11/27
 45 48  0  0  0  0  0  0  0  0999 V2000
   -5.4669    7.9269   76.2991 C   0  0  0  0  0  0
   -5.1108    8.5123   77.5252 C   0  0  0  0  0  0
   -5.8886    9.5348   78.0427 C   0  0  0  0  0  0
   -6.9499   10.0540   77.4081 N   0  0  0  0  0  0
   -7.2882    9.4777   76.2267 C   0  0  0  0  0  0
   -6.6367    8.3781   75.6613 C   0  0  0  0  0  0
   -7.1109    7.6925   74.5164 N   0  0  0  0  0  0
   -8.3547    7.8343   73.9331 C   0  0  0  0  0  0
   -9.2600    8.5016   74.4134 O   0  0  0  0  0  0
   -8.4338    7.1167   72.7459 N   0  0  0  0  0  0
   -9.5645    7.0347   71.9011 C   0  0  0  0  0  0
  -10.4215    5.9317   71.8926 C   0  0  0  0  0  0
  -11.5660    5.9211   71.1075 C   0  0  0  0  0  0
  -11.8544    7.0025   70.2912 C   0  0  0  0  0  0
  -10.9993    8.1125   70.2362 C   0  0  0  0  0  0
  -11.2881    9.2962   69.3353 C   0  0  0  0  0  0
  -11.9766   10.4740   70.0016 C   0  0  0  0  0  0
  -11.8564   11.7632   69.4578 C   0  0  0  0  0  0
  -12.4687   12.8539   70.0788 C   0  0  0  0  0  0
  -13.1934   12.6539   71.2580 C   0  0  0  0  0  0
  -14.0399   14.0149   72.0164 S   0  0  0  0  0  0
  -13.8382   15.1929   71.1791 O   0  0  0  0  0  0
  -15.3365   13.5805   72.4307 O   0  0  0  0  0  0
  -13.1454   14.2366   73.4229 N   0  0  0  0  0  0
  -13.2933   11.3836   71.8282 C   0  0  0  0  0  0
  -12.6777   10.2983   71.2055 C   0  0  0  0  0  0
   -9.8493    8.1163   71.0530 C   0  0  0  0  0  0
   -4.5586    6.8621   75.7202 C   0  0  0  0  0  0
   -4.6895    5.4622   76.3444 C   0  0  0  0  0  0
   -5.9956    4.8636   76.1512 N   0  0  0  0  0  0
   -6.3447    4.1729   75.0061 C   0  0  0  0  0  0
   -5.5863    4.0507   74.0498 O   0  0  0  0  0  0
   -7.8034    3.7001   74.9747 C   0  0  0  0  0  0
   -8.1185    2.6642   76.0676 C   0  0  0  0  0  0
   -8.3383    3.2742   77.4553 C   0  0  0  0  0  0
   -9.3478    4.4188   77.4415 C   0  0  0  0  0  0
   -9.0294    5.4560   76.3685 C   0  0  0  0  0  0
   -8.8339    4.8358   74.9877 C   0  0  0  0  0  0
  -10.6528    3.9007   77.1904 O   0  0  0  0  0  0
   -6.5743    6.8994   74.2119 H   0  0  0  0  0  0
   -7.5634    6.7842   72.3620 H   0  0  0  0  0  0
  -12.3529   14.8694   73.3051 H   0  0  0  0  0  0
  -12.8622   13.3233   73.7761 H   0  0  0  0  0  0
   -6.6447    4.9013   76.9231 H   0  0  0  0  0  0
  -11.2693    4.6551   77.2066 H   0  0  0  0  0  0
  1  2  2  0  0  0
  1  6  1  0  0  0
  1 28  1  0  0  0
  2  3  1  0  0  0
  3  4  2  0  0  0
  4  5  1  0  0  0
  5  6  2  0  0  0
  6  7  1  0  0  0
  7  8  1  0  0  0
  7 40  1  0  0  0
  8  9  2  0  0  0
  8 10  1  0  0  0
 10 11  1  0  0  0
 10 41  1  0  0  0
 11 12  2  0  0  0
 11 27  1  0  0  0
 12 13  1  0  0  0
 13 14  2  0  0  0
 14 15  1  0  0  0
 15 16  1  0  0  0
 15 27  2  0  0  0
 16 17  1  0  0  0
 17 18  2  0  0  0
 17 26  1  0  0  0
 18 19  1  0  0  0
 19 20  2  0  0  0
 20 21  1  0  0  0
 20 25  1  0  0  0
 21 22  2  0  0  0
 21 23  2  0  0  0
 21 24  1  0  0  0
 24 42  1  0  0  0
 24 43  1  0  0  0
 25 26  2  0  0  0
 28 29  1  0  0  0
 29 30  1  0  0  0
 30 31  1  0  0  0
 30 44  1  0  0  0
 31 32  2  0  0  0
 31 33  1  0  0  0
 33 34  1  0  0  0
 33 38  1  0  0  0
 34 35  1  0  0  0
 35 36  1  0  0  0
 36 37  1  0  0  0
 36 39  1  0  0  0
 37 38  1  0  0  0
 39 45  1  0  0  0
M  END
>  <AUTHOR>
    GENERATED BY OPEN BABEL 2.3.2

>  <CHROM.1>
78.41860360,166.62533618,-101.11508957,97.00622369,156.31137716,1.62725798
88.35340386,63.26510586,84.27610056,-64.63906350,178.90297013,-9.59187623
8.31887301,73.76419269,-0.55384848,-0.80984963,0.28107866

>  <COMPND>
    mol1_3d.pdb 

>  <MASTER>
        0    0    0    0    0    0    0    0   72    0   72    0

>  <Name>
ligands/mol1.pdb

>  <RI>
2.77152e+07

>  <Rbt.Current_Directory>
/home/rochoa/Projects/OCONDOR

>  <Rbt.Executable>
rbdock ($Id: //depot/dev/client3/rdock/2013.1/src/exe/rbdock.cxx#4 $)

>  <Rbt.Library>
libRbt.so (2013.1, Build901 2013/11/27)

>  <Rbt.Parameter_File>
dock.prm

>  <Rbt.Receptor>
rdock.prm

>  <SCORE>
-2.85601

>  <SCORE.INTER>
-7.11719

>  <SCORE.INTER.CONST>
1

>  <SCORE.INTER.POLAR>
-0.635816

>  <SCORE.INTER.REPUL>
0.0244269

>  <SCORE.INTER.ROT>
10

>  <SCORE.INTER.VDW>
-20.4775

>  <SCORE.INTER.norm>
-0.182492

>  <SCORE.INTRA>
4.26118

>  <SCORE.INTRA.DIHEDRAL>
10.9391

>  <SCORE.INTRA.DIHEDRAL.0>
8.24127

>  <SCORE.INTRA.POLAR>
0

>  <SCORE.INTRA.POLAR.0>
0

>  <SCORE.INTRA.REPUL>
0

>  <SCORE.INTRA.REPUL.0>
0

>  <SCORE.INTRA.VDW>
-1.20838

>  <SCORE.INTRA.VDW.0>
-4.15137

>  <SCORE.INTRA.norm>
0.109261

>  <SCORE.RESTR>
0

>  <SCORE.RESTR.CAVITY>
0

>  <SCORE.RESTR.norm>
0

>  <SCORE.SYSTEM>
0

>  <SCORE.SYSTEM.CONST>
0

>  <SCORE.SYSTEM.DIHEDRAL>
0

>  <SCORE.SYSTEM.norm>
0

>  <SCORE.heavy>
39

>  <SCORE.norm>
-0.0732311

$$$$
