ligands/mol10.pdb
  rDOCK(R)          3D
libRbt.so/2013.1/901 2013/11/27
 47 50  0  0  0  0  0  0  0  0999 V2000
  -10.6939    4.5803   75.4164 N   0  0  0  0  0  0
   -9.6266    5.8633   75.6108 S   0  0  0  0  0  0
  -10.0636    6.5636   76.8031 O   0  0  0  0  0  0
   -8.3172    5.2887   75.4883 O   0  0  0  0  0  0
   -9.9624    6.8881   74.2080 C   0  0  0  0  0  0
  -11.2760    6.9731   73.7333 C   0  0  0  0  0  0
  -11.5590    7.7638   72.6177 C   0  0  0  0  0  0
  -10.5382    8.4723   71.9670 C   0  0  0  0  0  0
  -10.8562    9.3268   70.7560 C   0  0  0  0  0  0
  -10.9331    8.5537   69.4564 C   0  0  0  0  0  0
  -11.3192    7.2078   69.4413 C   0  0  0  0  0  0
  -11.4563    6.5287   68.2322 C   0  0  0  0  0  0
  -11.2133    7.1888   67.0249 C   0  0  0  0  0  0
  -10.7479    8.5017   67.0241 C   0  0  0  0  0  0
  -10.4465    9.1104   65.7870 N   0  0  0  0  0  0
   -9.5290   10.1462   65.6543 C   0  0  0  0  0  0
   -8.8498   10.5789   66.5843 O   0  0  0  0  0  0
   -9.4469   10.7581   64.2487 C   0  0  0  0  0  0
   -9.2271    9.6858   63.1541 C   0  0  0  0  0  0
   -8.9322   10.2594   61.4418 S   0  0  0  0  0  0
  -10.5601   11.7410   63.9306 C   0  0  0  0  0  0
  -10.4584   13.1091   64.2060 C   0  0  0  0  0  0
  -11.5011   13.9779   63.8686 C   0  0  0  0  0  0
  -11.4241   15.4563   64.1493 C   0  0  0  0  0  0
  -11.2381   15.7918   65.6346 C   0  0  0  0  0  0
  -11.1051   17.2163   65.8732 N   0  0  0  0  0  0
  -10.6033   17.7076   67.0606 C   0  0  0  0  0  0
  -10.1512   16.9831   67.9404 O   0  0  0  0  0  0
  -10.6890   19.2296   67.1904 C   0  0  0  0  0  0
  -10.0793   19.7331   68.5091 C   0  0  0  0  0  0
   -8.5492   19.7117   68.5101 C   0  0  0  0  0  0
   -7.9526   20.4335   67.3054 C   0  0  0  0  0  0
   -8.1512   21.8387   67.4454 O   0  0  0  0  0  0
   -8.5406   19.9299   65.9887 C   0  0  0  0  0  0
  -10.0679   19.9352   65.9803 C   0  0  0  0  0  0
  -12.6261   13.4273   63.2682 C   0  0  0  0  0  0
  -12.7580   12.1196   62.9732 N   0  0  0  0  0  0
  -11.7351   11.3082   63.3173 C   0  0  0  0  0  0
  -10.6162    9.1804   68.2401 C   0  0  0  0  0  0
   -9.2214    8.3625   72.4475 C   0  0  0  0  0  0
   -8.9323    7.5737   73.5660 C   0  0  0  0  0  0
  -10.6409    3.9683   76.2322 H   0  0  0  0  0  0
  -10.4738    4.0982   74.5416 H   0  0  0  0  0  0
  -10.6854    8.5894   64.9521 H   0  0  0  0  0  0
  -10.1199   10.8799   61.2951 H   0  0  0  0  0  0
  -11.6078   17.8444   65.2592 H   0  0  0  0  0  0
   -7.7181   22.3003   66.7104 H   0  0  0  0  0  0
  1  2  1  0  0  0
  1 42  1  0  0  0
  1 43  1  0  0  0
  2  3  2  0  0  0
  2  4  2  0  0  0
  2  5  1  0  0  0
  5  6  2  0  0  0
  5 41  1  0  0  0
  6  7  1  0  0  0
  7  8  2  0  0  0
  8  9  1  0  0  0
  8 40  1  0  0  0
  9 10  1  0  0  0
 10 11  2  0  0  0
 10 39  1  0  0  0
 11 12  1  0  0  0
 12 13  2  0  0  0
 13 14  1  0  0  0
 14 15  1  0  0  0
 14 39  2  0  0  0
 15 16  1  0  0  0
 15 44  1  0  0  0
 16 17  2  0  0  0
 16 18  1  0  0  0
 18 19  1  0  0  0
 18 21  1  0  0  0
 19 20  1  0  0  0
 20 45  1  0  0  0
 21 22  2  0  0  0
 21 38  1  0  0  0
 22 23  1  0  0  0
 23 24  1  0  0  0
 23 36  2  0  0  0
 24 25  1  0  0  0
 25 26  1  0  0  0
 26 27  1  0  0  0
 26 46  1  0  0  0
 27 28  2  0  0  0
 27 29  1  0  0  0
 29 30  1  0  0  0
 29 35  1  0  0  0
 30 31  1  0  0  0
 31 32  1  0  0  0
 32 33  1  0  0  0
 32 34  1  0  0  0
 33 47  1  0  0  0
 34 35  1  0  0  0
 36 37  1  0  0  0
 37 38  2  0  0  0
 40 41  2  0  0  0
M  END
>  <AUTHOR>
    GENERATED BY OPEN BABEL 2.3.2

>  <CHROM.1>
-60.82707278,34.79756386,-82.56562841,28.91008139,-154.08137591,-52.27395726
-173.75818942,89.43602264,-61.78660874,-59.15396703,177.33981133,-163.50975811
-178.23839153,176.10655247,-10.19547220,11.66042599,68.17401238,-1.65856444
-1.44804899,-0.72964495

>  <COMPND>
    UNNAMED

>  <MASTER>
        0    0    0    0    0    0    0    0   77    0   77    0

>  <Name>
ligands/mol10.pdb

>  <RI>
8.10934e+06

>  <Rbt.Current_Directory>
/home/rodrigo/Desktop/Rodrigo/Proyectos/test_OCONDOR/OCONDOR

>  <Rbt.Executable>
rbdock ($Id: //depot/dev/client3/rdock/2013.1/src/exe/rbdock.cxx#4 $)

>  <Rbt.Library>
libRbt.so (2013.1, Build901 2013/11/27)

>  <Rbt.Parameter_File>
dock.prm

>  <Rbt.Receptor>
rdock.prm

>  <SCORE>
-23.3093

>  <SCORE.INTER>
-22.1029

>  <SCORE.INTER.CONST>
1

>  <SCORE.INTER.POLAR>
-1.09747

>  <SCORE.INTER.REPUL>
0.045023

>  <SCORE.INTER.ROT>
13

>  <SCORE.INTER.VDW>
-36.9966

>  <SCORE.INTER.norm>
-0.539095

>  <SCORE.INTRA>
-1.20637

>  <SCORE.INTRA.DIHEDRAL>
-6.78381

>  <SCORE.INTRA.DIHEDRAL.0>
15.2397

>  <SCORE.INTRA.POLAR>
0.13644

>  <SCORE.INTRA.POLAR.0>
-0.13644

>  <SCORE.INTRA.REPUL>
0

>  <SCORE.INTRA.REPUL.0>
0

>  <SCORE.INTRA.VDW>
1.72164

>  <SCORE.INTRA.VDW.0>
-4.66274

>  <SCORE.INTRA.norm>
-0.0294236

>  <SCORE.RESTR>
0

>  <SCORE.RESTR.CAVITY>
0

>  <SCORE.RESTR.norm>
0

>  <SCORE.SYSTEM>
0

>  <SCORE.SYSTEM.CONST>
0

>  <SCORE.SYSTEM.DIHEDRAL>
0

>  <SCORE.SYSTEM.norm>
0

>  <SCORE.heavy>
41

>  <SCORE.norm>
-0.568519

$$$$
ligands/mol10.pdb
  rDOCK(R)          3D
libRbt.so/2013.1/901 2013/11/27
 47 50  0  0  0  0  0  0  0  0999 V2000
  -13.0472   15.8190   74.4677 N   0  0  0  0  0  0
  -13.2987   15.9986   72.8162 S   0  0  0  0  0  0
  -14.6488   16.5090   72.6753 O   0  0  0  0  0  0
  -12.1494   16.7097   72.3331 O   0  0  0  0  0  0
  -13.2666   14.3344   72.2161 C   0  0  0  0  0  0
  -13.9902   13.3547   72.9051 C   0  0  0  0  0  0
  -13.9649   12.0323   72.4569 C   0  0  0  0  0  0
  -13.2192   11.6765   71.3235 C   0  0  0  0  0  0
  -13.1976   10.2379   70.8463 C   0  0  0  0  0  0
  -12.2332    9.3495   71.6033 C   0  0  0  0  0  0
  -12.6998    8.3148   72.4233 C   0  0  0  0  0  0
  -11.8008    7.4590   73.0566 C   0  0  0  0  0  0
  -10.4255    7.6252   72.8733 C   0  0  0  0  0  0
   -9.9413    8.6987   72.1295 C   0  0  0  0  0  0
   -8.5446    8.8732   72.0263 N   0  0  0  0  0  0
   -7.9486    9.6662   71.0526 C   0  0  0  0  0  0
   -8.5812   10.3384   70.2393 O   0  0  0  0  0  0
   -6.4144    9.6145   71.0297 C   0  0  0  0  0  0
   -5.8784    8.1697   70.8844 C   0  0  0  0  0  0
   -6.3329    7.2361   69.3778 S   0  0  0  0  0  0
   -5.7713   10.6068   70.0765 C   0  0  0  0  0  0
   -5.2298   11.8228   70.5076 C   0  0  0  0  0  0
   -4.6236   12.6906   69.5937 C   0  0  0  0  0  0
   -4.0292   14.0068   70.0238 C   0  0  0  0  0  0
   -4.6779   15.2238   69.3520 C   0  0  0  0  0  0
   -4.0471   16.4736   69.7315 N   0  0  0  0  0  0
   -4.5973   17.3005   70.6889 C   0  0  0  0  0  0
   -5.5872   16.9918   71.3431 O   0  0  0  0  0  0
   -3.8797   18.6435   70.8383 C   0  0  0  0  0  0
   -3.9347   19.4758   69.5466 C   0  0  0  0  0  0
   -5.3041   20.1131   69.3006 C   0  0  0  0  0  0
   -5.8037   20.9098   70.5022 C   0  0  0  0  0  0
   -5.0305   22.1002   70.6394 O   0  0  0  0  0  0
   -5.7676   20.0869   71.7884 C   0  0  0  0  0  0
   -4.4088   19.4357   72.0385 C   0  0  0  0  0  0
   -4.5945   12.3007   68.2609 C   0  0  0  0  0  0
   -5.0910   11.1337   67.8071 N   0  0  0  0  0  0
   -5.6741   10.3220   68.7151 C   0  0  0  0  0  0
  -10.8478    9.5523   71.4923 C   0  0  0  0  0  0
  -12.4850   12.6707   70.6531 C   0  0  0  0  0  0
  -12.5083   13.9974   71.0961 C   0  0  0  0  0  0
  -13.4955   16.5900   74.9650 H   0  0  0  0  0  0
  -12.0412   15.7626   74.6436 H   0  0  0  0  0  0
   -7.9954    8.6523   72.8480 H   0  0  0  0  0  0
   -5.7957    6.0641   69.7715 H   0  0  0  0  0  0
   -3.3345   16.8459   69.1168 H   0  0  0  0  0  0
   -5.3569   22.6111   71.3966 H   0  0  0  0  0  0
  1  2  1  0  0  0
  1 42  1  0  0  0
  1 43  1  0  0  0
  2  3  2  0  0  0
  2  4  2  0  0  0
  2  5  1  0  0  0
  5  6  2  0  0  0
  5 41  1  0  0  0
  6  7  1  0  0  0
  7  8  2  0  0  0
  8  9  1  0  0  0
  8 40  1  0  0  0
  9 10  1  0  0  0
 10 11  2  0  0  0
 10 39  1  0  0  0
 11 12  1  0  0  0
 12 13  2  0  0  0
 13 14  1  0  0  0
 14 15  1  0  0  0
 14 39  2  0  0  0
 15 16  1  0  0  0
 15 44  1  0  0  0
 16 17  2  0  0  0
 16 18  1  0  0  0
 18 19  1  0  0  0
 18 21  1  0  0  0
 19 20  1  0  0  0
 20 45  1  0  0  0
 21 22  2  0  0  0
 21 38  1  0  0  0
 22 23  1  0  0  0
 23 24  1  0  0  0
 23 36  2  0  0  0
 24 25  1  0  0  0
 25 26  1  0  0  0
 26 27  1  0  0  0
 26 46  1  0  0  0
 27 28  2  0  0  0
 27 29  1  0  0  0
 29 30  1  0  0  0
 29 35  1  0  0  0
 30 31  1  0  0  0
 31 32  1  0  0  0
 32 33  1  0  0  0
 32 34  1  0  0  0
 33 47  1  0  0  0
 34 35  1  0  0  0
 36 37  1  0  0  0
 37 38  2  0  0  0
 40 41  2  0  0  0
M  END
>  <AUTHOR>
    GENERATED BY OPEN BABEL 2.3.2

>  <CHROM.1>
-37.73765242,45.99176210,-81.11662175,112.69886215,162.48887890,55.37511910
61.05478624,99.88923224,-173.44885331,-119.54532380,-177.18901608,-100.13280154
61.99195954,179.26456199,-8.48380513,13.39412826,71.05826717,2.16077172,-0.31194707
-3.05671276

>  <COMPND>
    UNNAMED

>  <MASTER>
        0    0    0    0    0    0    0    0   77    0   77    0

>  <Name>
ligands/mol10.pdb

>  <RI>
8.10934e+06

>  <Rbt.Current_Directory>
/home/rodrigo/Desktop/Rodrigo/Proyectos/test_OCONDOR/OCONDOR

>  <Rbt.Executable>
rbdock ($Id: //depot/dev/client3/rdock/2013.1/src/exe/rbdock.cxx#4 $)

>  <Rbt.Library>
libRbt.so (2013.1, Build901 2013/11/27)

>  <Rbt.Parameter_File>
dock.prm

>  <Rbt.Receptor>
rdock.prm

>  <SCORE>
-17.5257

>  <SCORE.INTER>
-17.1315

>  <SCORE.INTER.CONST>
1

>  <SCORE.INTER.POLAR>
-1.5472

>  <SCORE.INTER.REPUL>
0

>  <SCORE.INTER.ROT>
13

>  <SCORE.INTER.VDW>
-30.2711

>  <SCORE.INTER.norm>
-0.417842

>  <SCORE.INTRA>
-0.394127

>  <SCORE.INTRA.DIHEDRAL>
-3.75065

>  <SCORE.INTRA.DIHEDRAL.0>
15.2397

>  <SCORE.INTRA.POLAR>
0.13644

>  <SCORE.INTRA.POLAR.0>
-0.13644

>  <SCORE.INTRA.REPUL>
0

>  <SCORE.INTRA.REPUL.0>
0

>  <SCORE.INTRA.VDW>
1.0173

>  <SCORE.INTRA.VDW.0>
-4.66274

>  <SCORE.INTRA.norm>
-0.00961286

>  <SCORE.RESTR>
0

>  <SCORE.RESTR.CAVITY>
0

>  <SCORE.RESTR.norm>
0

>  <SCORE.SYSTEM>
0

>  <SCORE.SYSTEM.CONST>
0

>  <SCORE.SYSTEM.DIHEDRAL>
0

>  <SCORE.SYSTEM.norm>
0

>  <SCORE.heavy>
41

>  <SCORE.norm>
-0.427455

$$$$
ligands/mol10.pdb
  rDOCK(R)          3D
libRbt.so/2013.1/901 2013/11/27
 47 50  0  0  0  0  0  0  0  0999 V2000
  -10.8895   19.7000   64.7201 N   0  0  0  0  0  0
  -10.2765   18.6974   65.9210 S   0  0  0  0  0  0
   -8.8553   18.5855   65.6549 O   0  0  0  0  0  0
  -10.7930   19.2223   67.1528 O   0  0  0  0  0  0
  -11.0332   17.1362   65.5735 C   0  0  0  0  0  0
  -11.5504   16.9071   64.2937 C   0  0  0  0  0  0
  -12.1659   15.6875   64.0040 C   0  0  0  0  0  0
  -12.2722   14.6905   64.9848 C   0  0  0  0  0  0
  -12.9433   13.3706   64.6602 C   0  0  0  0  0  0
  -11.9840   12.2083   64.5147 C   0  0  0  0  0  0
  -11.4989   11.8283   63.2573 C   0  0  0  0  0  0
  -10.5608   10.8041   63.1451 C   0  0  0  0  0  0
  -10.0938   10.1516   64.2890 C   0  0  0  0  0  0
  -10.6265   10.4587   65.5390 C   0  0  0  0  0  0
  -10.1800    9.7284   66.6610 N   0  0  0  0  0  0
  -10.6241    9.9774   67.9545 C   0  0  0  0  0  0
  -11.4915   10.8051   68.2302 O   0  0  0  0  0  0
   -9.9154    9.1641   69.0469 C   0  0  0  0  0  0
   -8.8271    9.9870   69.7778 C   0  0  0  0  0  0
   -8.0780    9.2673   71.2841 S   0  0  0  0  0  0
  -10.8557    8.4228   69.9811 C   0  0  0  0  0  0
  -10.5673    7.1501   70.4861 C   0  0  0  0  0  0
  -11.4539    6.5206   71.3656 C   0  0  0  0  0  0
  -11.1739    5.1515   71.9293 C   0  0  0  0  0  0
  -11.7119    4.9498   73.3517 C   0  0  0  0  0  0
  -11.0182    5.7634   74.3318 N   0  0  0  0  0  0
  -10.5226    5.2233   75.5005 C   0  0  0  0  0  0
  -10.5476    4.0209   75.7390 O   0  0  0  0  0  0
   -9.9680    6.2602   76.4794 C   0  0  0  0  0  0
   -9.9633    5.7441   77.9277 C   0  0  0  0  0  0
   -8.8484    4.7320   78.2010 C   0  0  0  0  0  0
   -7.4740    5.2483   77.7857 C   0  0  0  0  0  0
   -7.0601    6.2765   78.6831 O   0  0  0  0  0  0
   -7.4638    5.7496   76.3430 C   0  0  0  0  0  0
   -8.5800    6.7515   76.0549 C   0  0  0  0  0  0
  -12.6177    7.2011   71.6997 C   0  0  0  0  0  0
  -12.9262    8.4319   71.2477 N   0  0  0  0  0  0
  -12.0512    9.0084   70.3962 C   0  0  0  0  0  0
  -11.5647   11.4905   65.6468 C   0  0  0  0  0  0
  -11.7616   14.9439   66.2702 C   0  0  0  0  0  0
  -11.1421   16.1629   66.5655 C   0  0  0  0  0  0
  -10.8454   20.6709   65.0334 H   0  0  0  0  0  0
  -11.8395   19.3976   64.4917 H   0  0  0  0  0  0
   -9.7558    8.8269   66.4792 H   0  0  0  0  0  0
   -7.1438   10.2253   71.4477 H   0  0  0  0  0  0
  -11.1159    6.7683   74.2621 H   0  0  0  0  0  0
   -6.9598    5.9058   79.5738 H   0  0  0  0  0  0
  1  2  1  0  0  0
  1 42  1  0  0  0
  1 43  1  0  0  0
  2  3  2  0  0  0
  2  4  2  0  0  0
  2  5  1  0  0  0
  5  6  2  0  0  0
  5 41  1  0  0  0
  6  7  1  0  0  0
  7  8  2  0  0  0
  8  9  1  0  0  0
  8 40  1  0  0  0
  9 10  1  0  0  0
 10 11  2  0  0  0
 10 39  1  0  0  0
 11 12  1  0  0  0
 12 13  2  0  0  0
 13 14  1  0  0  0
 14 15  1  0  0  0
 14 39  2  0  0  0
 15 16  1  0  0  0
 15 44  1  0  0  0
 16 17  2  0  0  0
 16 18  1  0  0  0
 18 19  1  0  0  0
 18 21  1  0  0  0
 19 20  1  0  0  0
 20 45  1  0  0  0
 21 22  2  0  0  0
 21 38  1  0  0  0
 22 23  1  0  0  0
 23 24  1  0  0  0
 23 36  2  0  0  0
 24 25  1  0  0  0
 25 26  1  0  0  0
 26 27  1  0  0  0
 26 46  1  0  0  0
 27 28  2  0  0  0
 27 29  1  0  0  0
 29 30  1  0  0  0
 29 35  1  0  0  0
 30 31  1  0  0  0
 31 32  1  0  0  0
 32 33  1  0  0  0
 32 34  1  0  0  0
 33 47  1  0  0  0
 34 35  1  0  0  0
 36 37  1  0  0  0
 37 38  2  0  0  0
 40 41  2  0  0  0
M  END
>  <AUTHOR>
    GENERATED BY OPEN BABEL 2.3.2

>  <CHROM.1>
-89.79858416,19.86987973,106.57581303,-94.77630079,178.42274566,100.35729920
170.12489522,142.88512924,173.59497538,147.03739802,-67.57099402,-130.37502696
156.71464560,63.46307064,-10.45101731,10.57319546,69.71635459,-1.84882163
1.19227541,2.61183763

>  <COMPND>
    UNNAMED

>  <MASTER>
        0    0    0    0    0    0    0    0   77    0   77    0

>  <Name>
ligands/mol10.pdb

>  <RI>
8.10934e+06

>  <Rbt.Current_Directory>
/home/rodrigo/Desktop/Rodrigo/Proyectos/test_OCONDOR/OCONDOR

>  <Rbt.Executable>
rbdock ($Id: //depot/dev/client3/rdock/2013.1/src/exe/rbdock.cxx#4 $)

>  <Rbt.Library>
libRbt.so (2013.1, Build901 2013/11/27)

>  <Rbt.Parameter_File>
dock.prm

>  <Rbt.Receptor>
rdock.prm

>  <SCORE>
-16.1746

>  <SCORE.INTER>
-16.3074

>  <SCORE.INTER.CONST>
1

>  <SCORE.INTER.POLAR>
-0.87243

>  <SCORE.INTER.REPUL>
0

>  <SCORE.INTER.ROT>
13

>  <SCORE.INTER.VDW>
-31.7411

>  <SCORE.INTER.norm>
-0.397741

>  <SCORE.INTRA>
0.132751

>  <SCORE.INTRA.DIHEDRAL>
-3.82386

>  <SCORE.INTRA.DIHEDRAL.0>
15.2397

>  <SCORE.INTRA.POLAR>
0.13644

>  <SCORE.INTRA.POLAR.0>
-0.13644

>  <SCORE.INTRA.REPUL>
0

>  <SCORE.INTRA.REPUL.0>
0

>  <SCORE.INTRA.VDW>
1.58079

>  <SCORE.INTRA.VDW.0>
-4.66274

>  <SCORE.INTRA.norm>
0.00323782

>  <SCORE.RESTR>
0

>  <SCORE.RESTR.CAVITY>
0

>  <SCORE.RESTR.norm>
0

>  <SCORE.SYSTEM>
0

>  <SCORE.SYSTEM.CONST>
0

>  <SCORE.SYSTEM.DIHEDRAL>
0

>  <SCORE.SYSTEM.norm>
0

>  <SCORE.heavy>
41

>  <SCORE.norm>
-0.394503

$$$$
ligands/mol10.pdb
  rDOCK(R)          3D
libRbt.so/2013.1/901 2013/11/27
 47 50  0  0  0  0  0  0  0  0999 V2000
   -8.6669    7.1871   77.4422 N   0  0  0  0  0  0
   -7.8142    7.5431   76.0389 S   0  0  0  0  0  0
   -7.5060    8.9583   76.1121 O   0  0  0  0  0  0
   -6.7973    6.5345   75.9474 O   0  0  0  0  0  0
   -9.0134    7.2993   74.7609 C   0  0  0  0  0  0
   -8.8228    7.9316   73.5273 C   0  0  0  0  0  0
   -9.7660    7.7648   72.5110 C   0  0  0  0  0  0
  -10.9038    6.9707   72.7160 C   0  0  0  0  0  0
  -11.9220    6.7973   71.6065 C   0  0  0  0  0  0
  -12.2695    8.0794   70.8799 C   0  0  0  0  0  0
  -13.3219    8.8926   71.3181 C   0  0  0  0  0  0
  -13.5845   10.1057   70.6847 C   0  0  0  0  0  0
  -12.7952   10.5213   69.6092 C   0  0  0  0  0  0
  -11.7985    9.6879   69.1067 C   0  0  0  0  0  0
  -11.0701   10.1128   67.9751 N   0  0  0  0  0  0
  -11.3513   11.2885   67.2889 C   0  0  0  0  0  0
  -12.2102   12.0954   67.6420 O   0  0  0  0  0  0
  -10.5311   11.4991   66.0083 C   0  0  0  0  0  0
  -11.2010   12.5055   65.0417 C   0  0  0  0  0  0
  -10.3974   12.8031   63.4250 S   0  0  0  0  0  0
   -9.0561   11.7685   66.2499 C   0  0  0  0  0  0
   -8.5751   13.0187   66.6542 C   0  0  0  0  0  0
   -7.2097   13.2085   66.8902 C   0  0  0  0  0  0
   -6.6581   14.5407   67.3279 C   0  0  0  0  0  0
   -7.2311   15.7305   66.5472 C   0  0  0  0  0  0
   -6.3034   16.8424   66.4631 N   0  0  0  0  0  0
   -6.7107   18.0954   66.0546 C   0  0  0  0  0  0
   -7.8845   18.3728   65.8341 O   0  0  0  0  0  0
   -5.5658   19.0943   65.8746 C   0  0  0  0  0  0
   -5.9857   20.3100   65.0321 C   0  0  0  0  0  0
   -6.8686   21.2966   65.7996 C   0  0  0  0  0  0
   -6.2525   21.7220   67.1291 C   0  0  0  0  0  0
   -5.1347   22.5734   66.8855 O   0  0  0  0  0  0
   -5.8456   20.5212   67.9807 C   0  0  0  0  0  0
   -4.9739   19.5231   67.2213 C   0  0  0  0  0  0
   -6.3679   12.1207   66.6976 C   0  0  0  0  0  0
   -6.7916   10.8981   66.3233 N   0  0  0  0  0  0
   -8.1148   10.7510   66.0986 C   0  0  0  0  0  0
  -11.5359    8.4733   69.7488 C   0  0  0  0  0  0
  -11.0876    6.3561   73.9672 C   0  0  0  0  0  0
  -10.1451    6.5178   74.9882 C   0  0  0  0  0  0
   -8.8356    6.1812   77.4907 H   0  0  0  0  0  0
   -9.5294    7.7368   77.4520 H   0  0  0  0  0  0
  -10.1530    9.7039   67.8431 H   0  0  0  0  0  0
   -9.2454   13.2897   63.9282 H   0  0  0  0  0  0
   -5.3139   16.6304   66.4730 H   0  0  0  0  0  0
   -4.7864   22.8979   67.7307 H   0  0  0  0  0  0
  1  2  1  0  0  0
  1 42  1  0  0  0
  1 43  1  0  0  0
  2  3  2  0  0  0
  2  4  2  0  0  0
  2  5  1  0  0  0
  5  6  2  0  0  0
  5 41  1  0  0  0
  6  7  1  0  0  0
  7  8  2  0  0  0
  8  9  1  0  0  0
  8 40  1  0  0  0
  9 10  1  0  0  0
 10 11  2  0  0  0
 10 39  1  0  0  0
 11 12  1  0  0  0
 12 13  2  0  0  0
 13 14  1  0  0  0
 14 15  1  0  0  0
 14 39  2  0  0  0
 15 16  1  0  0  0
 15 44  1  0  0  0
 16 17  2  0  0  0
 16 18  1  0  0  0
 18 19  1  0  0  0
 18 21  1  0  0  0
 19 20  1  0  0  0
 20 45  1  0  0  0
 21 22  2  0  0  0
 21 38  1  0  0  0
 22 23  1  0  0  0
 23 24  1  0  0  0
 23 36  2  0  0  0
 24 25  1  0  0  0
 25 26  1  0  0  0
 26 27  1  0  0  0
 26 46  1  0  0  0
 27 28  2  0  0  0
 27 29  1  0  0  0
 29 30  1  0  0  0
 29 35  1  0  0  0
 30 31  1  0  0  0
 31 32  1  0  0  0
 32 33  1  0  0  0
 32 34  1  0  0  0
 33 47  1  0  0  0
 34 35  1  0  0  0
 36 37  1  0  0  0
 37 38  2  0  0  0
 40 41  2  0  0  0
M  END
>  <AUTHOR>
    GENERATED BY OPEN BABEL 2.3.2

>  <CHROM.1>
-174.61279218,157.95820764,-43.88141205,-89.94767401,-3.90135954,159.49123186
-176.78393270,-78.30550755,-61.69187327,-44.39974729,-151.16122706,-166.34407621
162.69588595,175.66025069,-8.86951701,12.31662845,69.20957497,-1.92724157
-0.87600898,-0.89732184

>  <COMPND>
    UNNAMED

>  <MASTER>
        0    0    0    0    0    0    0    0   77    0   77    0

>  <Name>
ligands/mol10.pdb

>  <RI>
8.10934e+06

>  <Rbt.Current_Directory>
/home/rodrigo/Desktop/Rodrigo/Proyectos/test_OCONDOR/OCONDOR

>  <Rbt.Executable>
rbdock ($Id: //depot/dev/client3/rdock/2013.1/src/exe/rbdock.cxx#4 $)

>  <Rbt.Library>
libRbt.so (2013.1, Build901 2013/11/27)

>  <Rbt.Parameter_File>
dock.prm

>  <Rbt.Receptor>
rdock.prm

>  <SCORE>
-15.6678

>  <SCORE.INTER>
-16.2892

>  <SCORE.INTER.CONST>
1

>  <SCORE.INTER.POLAR>
-2.31888

>  <SCORE.INTER.REPUL>
0.0338416

>  <SCORE.INTER.ROT>
13

>  <SCORE.INTER.VDW>
-26.9742

>  <SCORE.INTER.norm>
-0.397297

>  <SCORE.INTRA>
0.621354

>  <SCORE.INTRA.DIHEDRAL>
-3.94712

>  <SCORE.INTRA.DIHEDRAL.0>
15.2397

>  <SCORE.INTRA.POLAR>
0.13644

>  <SCORE.INTRA.POLAR.0>
-0.13644

>  <SCORE.INTRA.REPUL>
0

>  <SCORE.INTRA.REPUL.0>
0

>  <SCORE.INTRA.VDW>
2.13102

>  <SCORE.INTRA.VDW.0>
-4.66274

>  <SCORE.INTRA.norm>
0.015155

>  <SCORE.RESTR>
0

>  <SCORE.RESTR.CAVITY>
0

>  <SCORE.RESTR.norm>
0

>  <SCORE.SYSTEM>
0

>  <SCORE.SYSTEM.CONST>
0

>  <SCORE.SYSTEM.DIHEDRAL>
0

>  <SCORE.SYSTEM.norm>
0

>  <SCORE.heavy>
41

>  <SCORE.norm>
-0.382143

$$$$
ligands/mol10.pdb
  rDOCK(R)          3D
libRbt.so/2013.1/901 2013/11/27
 47 50  0  0  0  0  0  0  0  0999 V2000
  -10.1448    5.3003   76.7754 N   0  0  0  0  0  0
   -9.9335    4.6076   75.2593 S   0  0  0  0  0  0
   -8.5038    4.4186   75.1069 O   0  0  0  0  0  0
  -10.8668    3.5186   75.2070 O   0  0  0  0  0  0
  -10.4477    5.8879   74.1515 C   0  0  0  0  0  0
   -9.8723    7.1575   74.2741 C   0  0  0  0  0  0
  -10.2761    8.1858   73.4199 C   0  0  0  0  0  0
  -11.2548    7.9584   72.4412 C   0  0  0  0  0  0
  -11.6867    9.0820   71.5199 C   0  0  0  0  0  0
  -10.6173    9.5287   70.5456 C   0  0  0  0  0  0
   -9.2643    9.5157   70.9061 C   0  0  0  0  0  0
   -8.2851    9.8598   69.9762 C   0  0  0  0  0  0
   -8.6474   10.2161   68.6746 C   0  0  0  0  0  0
   -9.9914   10.3156   68.3225 C   0  0  0  0  0  0
  -10.3177   10.7471   67.0190 N   0  0  0  0  0  0
   -9.3666   10.9465   66.0250 C   0  0  0  0  0  0
   -8.1694   10.7018   66.1679 O   0  0  0  0  0  0
   -9.9127   11.5458   64.7215 C   0  0  0  0  0  0
  -10.4805   10.4639   63.7712 C   0  0  0  0  0  0
   -9.2966    9.3178   62.9756 S   0  0  0  0  0  0
  -10.8371   12.7342   64.9209 C   0  0  0  0  0  0
  -10.4349   14.0513   64.6733 C   0  0  0  0  0  0
  -11.3330   15.1094   64.8462 C   0  0  0  0  0  0
  -10.9336   16.5391   64.5873 C   0  0  0  0  0  0
  -10.5418   17.3079   65.8556 C   0  0  0  0  0  0
   -9.8982   18.5748   65.5644 N   0  0  0  0  0  0
   -8.8149   19.0206   66.2929 C   0  0  0  0  0  0
   -8.2708   18.3412   67.1565 O   0  0  0  0  0  0
   -8.3750   20.4444   65.9464 C   0  0  0  0  0  0
   -8.1714   21.3087   67.2017 C   0  0  0  0  0  0
   -6.8811   20.9787   67.9553 C   0  0  0  0  0  0
   -5.6519   21.0048   67.0516 C   0  0  0  0  0  0
   -5.3549   22.3519   66.6900 O   0  0  0  0  0  0
   -5.8380   20.1369   65.8086 C   0  0  0  0  0  0
   -7.1290   20.4490   65.0546 C   0  0  0  0  0  0
  -12.6160   14.7980   65.2775 C   0  0  0  0  0  0
  -13.0472   13.5439   65.5132 N   0  0  0  0  0  0
  -12.1532   12.5467   65.3418 C   0  0  0  0  0  0
  -10.9703    9.9649   69.2580 C   0  0  0  0  0  0
  -11.8341    6.6810   72.3429 C   0  0  0  0  0  0
  -11.4320    5.6465   73.1944 C   0  0  0  0  0  0
   -9.6472    4.7461   77.4739 H   0  0  0  0  0  0
  -11.1467    5.3760   76.9663 H   0  0  0  0  0  0
  -11.2797   10.6273   66.7263 H   0  0  0  0  0  0
  -10.1929    8.7407   62.1505 H   0  0  0  0  0  0
  -10.4007   19.2347   64.9844 H   0  0  0  0  0  0
   -5.1088   22.8520   67.4839 H   0  0  0  0  0  0
  1  2  1  0  0  0
  1 42  1  0  0  0
  1 43  1  0  0  0
  2  3  2  0  0  0
  2  4  2  0  0  0
  2  5  1  0  0  0
  5  6  2  0  0  0
  5 41  1  0  0  0
  6  7  1  0  0  0
  7  8  2  0  0  0
  8  9  1  0  0  0
  8 40  1  0  0  0
  9 10  1  0  0  0
 10 11  2  0  0  0
 10 39  1  0  0  0
 11 12  1  0  0  0
 12 13  2  0  0  0
 13 14  1  0  0  0
 14 15  1  0  0  0
 14 39  2  0  0  0
 15 16  1  0  0  0
 15 44  1  0  0  0
 16 17  2  0  0  0
 16 18  1  0  0  0
 18 19  1  0  0  0
 18 21  1  0  0  0
 19 20  1  0  0  0
 20 45  1  0  0  0
 21 22  2  0  0  0
 21 38  1  0  0  0
 22 23  1  0  0  0
 23 24  1  0  0  0
 23 36  2  0  0  0
 24 25  1  0  0  0
 25 26  1  0  0  0
 26 27  1  0  0  0
 26 46  1  0  0  0
 27 28  2  0  0  0
 27 29  1  0  0  0
 29 30  1  0  0  0
 29 35  1  0  0  0
 30 31  1  0  0  0
 31 32  1  0  0  0
 32 33  1  0  0  0
 32 34  1  0  0  0
 33 47  1  0  0  0
 34 35  1  0  0  0
 36 37  1  0  0  0
 37 38  2  0  0  0
 40 41  2  0  0  0
M  END
>  <AUTHOR>
    GENERATED BY OPEN BABEL 2.3.2

>  <CHROM.1>
-51.11092123,53.06270846,67.88795434,-34.05307242,6.82777387,-85.13212705
-69.79046200,104.66197417,-171.79456625,-97.83460089,167.80832362,-139.46824078
131.75849500,64.50605493,-9.64962338,12.16073438,68.54593965,-1.93893795
-1.20210437,-0.89780610

>  <COMPND>
    UNNAMED

>  <MASTER>
        0    0    0    0    0    0    0    0   77    0   77    0

>  <Name>
ligands/mol10.pdb

>  <RI>
8.10934e+06

>  <Rbt.Current_Directory>
/home/rodrigo/Desktop/Rodrigo/Proyectos/test_OCONDOR/OCONDOR

>  <Rbt.Executable>
rbdock ($Id: //depot/dev/client3/rdock/2013.1/src/exe/rbdock.cxx#4 $)

>  <Rbt.Library>
libRbt.so (2013.1, Build901 2013/11/27)

>  <Rbt.Parameter_File>
dock.prm

>  <Rbt.Receptor>
rdock.prm

>  <SCORE>
-15.4961

>  <SCORE.INTER>
-16.0718

>  <SCORE.INTER.CONST>
1

>  <SCORE.INTER.POLAR>
-1.57018

>  <SCORE.INTER.REPUL>
0.0233004

>  <SCORE.INTER.ROT>
13

>  <SCORE.INTER.VDW>
-29.2497

>  <SCORE.INTER.norm>
-0.391994

>  <SCORE.INTRA>
0.575633

>  <SCORE.INTRA.DIHEDRAL>
-3.49277

>  <SCORE.INTRA.DIHEDRAL.0>
15.2397

>  <SCORE.INTRA.POLAR>
0.13644

>  <SCORE.INTRA.POLAR.0>
-0.13644

>  <SCORE.INTRA.REPUL>
0

>  <SCORE.INTRA.REPUL.0>
0

>  <SCORE.INTRA.VDW>
1.85812

>  <SCORE.INTRA.VDW.0>
-4.66274

>  <SCORE.INTRA.norm>
0.0140398

>  <SCORE.RESTR>
0

>  <SCORE.RESTR.CAVITY>
0

>  <SCORE.RESTR.norm>
0

>  <SCORE.SYSTEM>
0

>  <SCORE.SYSTEM.CONST>
0

>  <SCORE.SYSTEM.DIHEDRAL>
0

>  <SCORE.SYSTEM.norm>
0

>  <SCORE.heavy>
41

>  <SCORE.norm>
-0.377954

$$$$
ligands/mol10.pdb
  rDOCK(R)          3D
libRbt.so/2013.1/901 2013/11/27
 47 50  0  0  0  0  0  0  0  0999 V2000
   -7.7209    9.7878   75.8929 N   0  0  0  0  0  0
   -7.5002    8.2185   75.3347 S   0  0  0  0  0  0
   -6.2529    8.2339   74.5951 O   0  0  0  0  0  0
   -7.7104    7.3768   76.4780 O   0  0  0  0  0  0
   -8.8277    8.0052   74.1844 C   0  0  0  0  0  0
   -9.7809    7.0109   74.4308 C   0  0  0  0  0  0
  -10.8272    6.8159   73.5269 C   0  0  0  0  0  0
  -10.9307    7.6064   72.3729 C   0  0  0  0  0  0
  -12.0699    7.3856   71.3976 C   0  0  0  0  0  0
  -11.6763    7.5331   69.9430 C   0  0  0  0  0  0
  -11.5607    6.4125   69.1113 C   0  0  0  0  0  0
  -11.2691    6.5681   67.7576 C   0  0  0  0  0  0
  -11.0944    7.8458   67.2195 C   0  0  0  0  0  0
  -11.1227    8.9658   68.0472 C   0  0  0  0  0  0
  -10.8714   10.2325   67.4779 N   0  0  0  0  0  0
  -10.5589   11.3562   68.2342 C   0  0  0  0  0  0
  -10.4065   11.3358   69.4548 O   0  0  0  0  0  0
  -10.4559   12.6627   67.4348 C   0  0  0  0  0  0
  -11.8225   13.1081   66.8603 C   0  0  0  0  0  0
  -11.8581   14.5927   65.7913 S   0  0  0  0  0  0
   -9.6982   13.7705   68.1456 C   0  0  0  0  0  0
   -8.4526   14.2328   67.7068 C   0  0  0  0  0  0
   -7.8075   15.2748   68.3807 C   0  0  0  0  0  0
   -6.4667   15.7980   67.9344 C   0  0  0  0  0  0
   -6.5577   17.0427   67.0425 C   0  0  0  0  0  0
   -6.8067   18.2550   67.7990 N   0  0  0  0  0  0
   -5.7798   19.0928   68.1821 C   0  0  0  0  0  0
   -4.6179   18.9231   67.8292 O   0  0  0  0  0  0
   -6.2169   20.2308   69.1067 C   0  0  0  0  0  0
   -6.6403   19.7193   70.4934 C   0  0  0  0  0  0
   -5.4545   19.3165   71.3729 C   0  0  0  0  0  0
   -4.4032   20.4173   71.4786 C   0  0  0  0  0  0
   -4.9113   21.4865   72.2738 O   0  0  0  0  0  0
   -3.9642   20.9221   70.1056 C   0  0  0  0  0  0
   -5.1403   21.3158   69.2142 C   0  0  0  0  0  0
   -8.4447   15.8119   69.4918 C   0  0  0  0  0  0
   -9.6490   15.4059   69.9383 N   0  0  0  0  0  0
  -10.2413   14.3946   69.2680 C   0  0  0  0  0  0
  -11.4201    8.8047   69.4044 C   0  0  0  0  0  0
   -9.9550    8.5899   72.1328 C   0  0  0  0  0  0
   -8.9058    8.7912   73.0358 C   0  0  0  0  0  0
   -8.6282    9.8588   76.3561 H   0  0  0  0  0  0
   -7.6233   10.4341   75.1062 H   0  0  0  0  0  0
  -10.6309   10.2509   66.4943 H   0  0  0  0  0  0
  -11.3187   15.4317   66.6982 H   0  0  0  0  0  0
   -7.7082   18.3514   68.2486 H   0  0  0  0  0  0
   -5.6933   21.8654   71.8428 H   0  0  0  0  0  0
  1  2  1  0  0  0
  1 42  1  0  0  0
  1 43  1  0  0  0
  2  3  2  0  0  0
  2  4  2  0  0  0
  2  5  1  0  0  0
  5  6  2  0  0  0
  5 41  1  0  0  0
  6  7  1  0  0  0
  7  8  2  0  0  0
  8  9  1  0  0  0
  8 40  1  0  0  0
  9 10  1  0  0  0
 10 11  2  0  0  0
 10 39  1  0  0  0
 11 12  1  0  0  0
 12 13  2  0  0  0
 13 14  1  0  0  0
 14 15  1  0  0  0
 14 39  2  0  0  0
 15 16  1  0  0  0
 15 44  1  0  0  0
 16 17  2  0  0  0
 16 18  1  0  0  0
 18 19  1  0  0  0
 18 21  1  0  0  0
 19 20  1  0  0  0
 20 45  1  0  0  0
 21 22  2  0  0  0
 21 38  1  0  0  0
 22 23  1  0  0  0
 23 24  1  0  0  0
 23 36  2  0  0  0
 24 25  1  0  0  0
 25 26  1  0  0  0
 26 27  1  0  0  0
 26 46  1  0  0  0
 27 28  2  0  0  0
 27 29  1  0  0  0
 29 30  1  0  0  0
 29 35  1  0  0  0
 30 31  1  0  0  0
 31 32  1  0  0  0
 32 33  1  0  0  0
 32 34  1  0  0  0
 33 47  1  0  0  0
 34 35  1  0  0  0
 36 37  1  0  0  0
 37 38  2  0  0  0
 40 41  2  0  0  0
M  END
>  <AUTHOR>
    GENERATED BY OPEN BABEL 2.3.2

>  <CHROM.1>
175.16145317,-118.34784325,-141.88582703,106.83159971,-164.08348713,67.09970958
-176.22866151,111.63344426,-57.49104197,96.32787059,78.29601630,96.21958106
68.53740866,-62.13795790,-8.66451506,12.90438861,70.22201136,-2.11303999
-0.91706932,-0.69320536

>  <COMPND>
    UNNAMED

>  <MASTER>
        0    0    0    0    0    0    0    0   77    0   77    0

>  <Name>
ligands/mol10.pdb

>  <RI>
8.10934e+06

>  <Rbt.Current_Directory>
/home/rodrigo/Desktop/Rodrigo/Proyectos/test_OCONDOR/OCONDOR

>  <Rbt.Executable>
rbdock ($Id: //depot/dev/client3/rdock/2013.1/src/exe/rbdock.cxx#4 $)

>  <Rbt.Library>
libRbt.so (2013.1, Build901 2013/11/27)

>  <Rbt.Parameter_File>
dock.prm

>  <Rbt.Receptor>
rdock.prm

>  <SCORE>
-17.0267

>  <SCORE.INTER>
-14.6145

>  <SCORE.INTER.CONST>
1

>  <SCORE.INTER.POLAR>
-2.10012

>  <SCORE.INTER.REPUL>
0

>  <SCORE.INTER.ROT>
13

>  <SCORE.INTER.VDW>
-25.8741

>  <SCORE.INTER.norm>
-0.356452

>  <SCORE.INTRA>
-2.41214

>  <SCORE.INTRA.DIHEDRAL>
-6.33635

>  <SCORE.INTRA.DIHEDRAL.0>
15.2397

>  <SCORE.INTRA.POLAR>
0.13644

>  <SCORE.INTRA.POLAR.0>
-0.13644

>  <SCORE.INTRA.REPUL>
0

>  <SCORE.INTRA.REPUL.0>
0

>  <SCORE.INTRA.VDW>
0.292137

>  <SCORE.INTRA.VDW.0>
-4.66274

>  <SCORE.INTRA.norm>
-0.0588328

>  <SCORE.RESTR>
0

>  <SCORE.RESTR.CAVITY>
0

>  <SCORE.RESTR.norm>
0

>  <SCORE.SYSTEM>
0

>  <SCORE.SYSTEM.CONST>
0

>  <SCORE.SYSTEM.DIHEDRAL>
0

>  <SCORE.SYSTEM.norm>
0

>  <SCORE.heavy>
41

>  <SCORE.norm>
-0.415285

$$$$
ligands/mol10.pdb
  rDOCK(R)          3D
libRbt.so/2013.1/901 2013/11/27
 47 50  0  0  0  0  0  0  0  0999 V2000
   -8.1903   21.3016   67.0863 N   0  0  0  0  0  0
   -8.6077   20.3439   65.7704 S   0  0  0  0  0  0
   -9.9216   20.7951   65.3542 O   0  0  0  0  0  0
   -7.4672   20.3783   64.8999 O   0  0  0  0  0  0
   -8.7708   18.7299   66.4770 C   0  0  0  0  0  0
   -9.5476   18.5735   67.6303 C   0  0  0  0  0  0
   -9.6758   17.3107   68.2125 C   0  0  0  0  0  0
   -9.0313   16.1976   67.6531 C   0  0  0  0  0  0
   -9.1761   14.8315   68.2938 C   0  0  0  0  0  0
  -10.3514   14.0280   67.7785 C   0  0  0  0  0  0
  -11.2438   14.5740   66.8478 C   0  0  0  0  0  0
  -12.2785   13.7994   66.3269 C   0  0  0  0  0  0
  -12.4296   12.4692   66.7273 C   0  0  0  0  0  0
  -11.6035   11.9349   67.7135 C   0  0  0  0  0  0
  -11.8331   10.6099   68.1415 N   0  0  0  0  0  0
  -11.1015   10.0021   69.1552 C   0  0  0  0  0  0
  -10.2389   10.5806   69.8145 O   0  0  0  0  0  0
  -11.4169    8.5159   69.3754 C   0  0  0  0  0  0
  -10.5979    7.5971   68.4368 C   0  0  0  0  0  0
  -11.0450    7.5700   66.6627 S   0  0  0  0  0  0
  -11.3950    8.0829   70.8310 C   0  0  0  0  0  0
  -10.5627    7.0607   71.3003 C   0  0  0  0  0  0
  -10.5598    6.7175   72.6561 C   0  0  0  0  0  0
   -9.6753    5.6233   73.1955 C   0  0  0  0  0  0
   -8.3171    6.1240   73.7032 C   0  0  0  0  0  0
   -8.4359    6.9660   74.8783 N   0  0  0  0  0  0
   -7.6950    8.1211   75.0189 C   0  0  0  0  0  0
   -6.9719    8.5582   74.1304 O   0  0  0  0  0  0
   -7.8351    8.7878   76.3888 C   0  0  0  0  0  0
   -6.9786    8.0936   77.4605 C   0  0  0  0  0  0
   -5.4872    8.4140   77.3378 C   0  0  0  0  0  0
   -5.2128    9.9141   77.2863 C   0  0  0  0  0  0
   -5.4542   10.4869   78.5698 O   0  0  0  0  0  0
   -6.0478   10.6113   76.2142 C   0  0  0  0  0  0
   -7.5371   10.2892   76.3191 C   0  0  0  0  0  0
  -11.4139    7.4189   73.4973 C   0  0  0  0  0  0
  -12.2197    8.4181   73.0889 N   0  0  0  0  0  0
  -12.2018    8.7199   71.7730 C   0  0  0  0  0  0
  -10.5638   12.7151   68.2299 C   0  0  0  0  0  0
   -8.2414   16.3759   66.5035 C   0  0  0  0  0  0
   -8.1112   17.6381   65.9147 C   0  0  0  0  0  0
   -8.9340   21.2611   67.7849 H   0  0  0  0  0  0
   -8.0045   22.2517   66.7566 H   0  0  0  0  0  0
  -12.7303   10.2035   67.9061 H   0  0  0  0  0  0
  -12.2499    6.9893   66.8305 H   0  0  0  0  0  0
   -8.8839    6.5716   75.6955 H   0  0  0  0  0  0
   -5.2106   11.4257   78.5547 H   0  0  0  0  0  0
  1  2  1  0  0  0
  1 42  1  0  0  0
  1 43  1  0  0  0
  2  3  2  0  0  0
  2  4  2  0  0  0
  2  5  1  0  0  0
  5  6  2  0  0  0
  5 41  1  0  0  0
  6  7  1  0  0  0
  7  8  2  0  0  0
  8  9  1  0  0  0
  8 40  1  0  0  0
  9 10  1  0  0  0
 10 11  2  0  0  0
 10 39  1  0  0  0
 11 12  1  0  0  0
 12 13  2  0  0  0
 13 14  1  0  0  0
 14 15  1  0  0  0
 14 39  2  0  0  0
 15 16  1  0  0  0
 15 44  1  0  0  0
 16 17  2  0  0  0
 16 18  1  0  0  0
 18 19  1  0  0  0
 18 21  1  0  0  0
 19 20  1  0  0  0
 20 45  1  0  0  0
 21 22  2  0  0  0
 21 38  1  0  0  0
 22 23  1  0  0  0
 23 24  1  0  0  0
 23 36  2  0  0  0
 24 25  1  0  0  0
 25 26  1  0  0  0
 26 27  1  0  0  0
 26 46  1  0  0  0
 27 28  2  0  0  0
 27 29  1  0  0  0
 29 30  1  0  0  0
 29 35  1  0  0  0
 30 31  1  0  0  0
 31 32  1  0  0  0
 32 33  1  0  0  0
 32 34  1  0  0  0
 33 47  1  0  0  0
 34 35  1  0  0  0
 36 37  1  0  0  0
 37 38  2  0  0  0
 40 41  2  0  0  0
M  END
>  <AUTHOR>
    GENERATED BY OPEN BABEL 2.3.2

>  <CHROM.1>
53.35405216,49.39948720,89.62683683,-3.50063652,-177.35469805,85.67803585
-72.08822124,-122.43211920,-67.14647402,92.31342778,66.72187390,-137.63940957
79.03518958,175.43185444,-9.36975927,12.00482059,70.33476341,-1.67650528
0.95189155,2.55134522

>  <COMPND>
    UNNAMED

>  <MASTER>
        0    0    0    0    0    0    0    0   77    0   77    0

>  <Name>
ligands/mol10.pdb

>  <RI>
8.10934e+06

>  <Rbt.Current_Directory>
/home/rodrigo/Desktop/Rodrigo/Proyectos/test_OCONDOR/OCONDOR

>  <Rbt.Executable>
rbdock ($Id: //depot/dev/client3/rdock/2013.1/src/exe/rbdock.cxx#4 $)

>  <Rbt.Library>
libRbt.so (2013.1, Build901 2013/11/27)

>  <Rbt.Parameter_File>
dock.prm

>  <Rbt.Receptor>
rdock.prm

>  <SCORE>
-12.3386

>  <SCORE.INTER>
-11.2993

>  <SCORE.INTER.CONST>
1

>  <SCORE.INTER.POLAR>
-1.34682

>  <SCORE.INTER.REPUL>
0

>  <SCORE.INTER.ROT>
13

>  <SCORE.INTER.VDW>
-25.1201

>  <SCORE.INTER.norm>
-0.275593

>  <SCORE.INTRA>
-1.04941

>  <SCORE.INTRA.DIHEDRAL>
-5.40865

>  <SCORE.INTRA.DIHEDRAL.0>
15.2397

>  <SCORE.INTRA.POLAR>
0.13644

>  <SCORE.INTRA.POLAR.0>
-0.13644

>  <SCORE.INTRA.REPUL>
0

>  <SCORE.INTRA.REPUL.0>
0

>  <SCORE.INTRA.VDW>
1.19102

>  <SCORE.INTRA.VDW.0>
-4.66274

>  <SCORE.INTRA.norm>
-0.0255953

>  <SCORE.RESTR>
0.0101028

>  <SCORE.RESTR.CAVITY>
0.0101028

>  <SCORE.RESTR.norm>
0.000246409

>  <SCORE.SYSTEM>
0

>  <SCORE.SYSTEM.CONST>
0

>  <SCORE.SYSTEM.DIHEDRAL>
0

>  <SCORE.SYSTEM.norm>
0

>  <SCORE.heavy>
41

>  <SCORE.norm>
-0.300942

$$$$
ligands/mol10.pdb
  rDOCK(R)          3D
libRbt.so/2013.1/901 2013/11/27
 47 50  0  0  0  0  0  0  0  0999 V2000
  -12.3572   15.6479   68.7037 N   0  0  0  0  0  0
  -11.6574   15.5304   70.2268 S   0  0  0  0  0  0
  -10.2380   15.3427   69.9961 O   0  0  0  0  0  0
  -12.1791   16.6417   70.9700 O   0  0  0  0  0  0
  -12.3228   14.0203   70.8651 C   0  0  0  0  0  0
  -13.0567   14.0565   72.0560 C   0  0  0  0  0  0
  -13.5767   12.8732   72.5848 C   0  0  0  0  0  0
  -13.3685   11.6481   71.9342 C   0  0  0  0  0  0
  -13.9363   10.3694   72.5175 C   0  0  0  0  0  0
  -13.3924    9.1060   71.8847 C   0  0  0  0  0  0
  -14.2489    8.1764   71.2822 C   0  0  0  0  0  0
  -13.7294    7.0543   70.6398 C   0  0  0  0  0  0
  -12.3479    6.8514   70.5887 C   0  0  0  0  0  0
  -11.4859    7.7203   71.2538 C   0  0  0  0  0  0
  -10.1024    7.4420   71.2382 N   0  0  0  0  0  0
   -9.2095    7.9795   72.1581 C   0  0  0  0  0  0
   -9.5497    8.6876   73.1049 O   0  0  0  0  0  0
   -7.7329    7.6601   71.8853 C   0  0  0  0  0  0
   -7.2160    8.3357   70.5921 C   0  0  0  0  0  0
   -7.3761   10.1532   70.4538 S   0  0  0  0  0  0
   -6.8216    7.8522   73.0849 C   0  0  0  0  0  0
   -6.3679    6.7829   73.8650 C   0  0  0  0  0  0
   -5.5073    7.0096   74.9439 C   0  0  0  0  0  0
   -4.9986    5.8814   75.8036 C   0  0  0  0  0  0
   -4.2393    4.8040   75.0189 C   0  0  0  0  0  0
   -5.1254    3.8541   74.3735 N   0  0  0  0  0  0
   -5.4236    3.9403   73.0294 C   0  0  0  0  0  0
   -4.8902    4.7528   72.2819 O   0  0  0  0  0  0
   -6.4968    2.9535   72.5652 C   0  0  0  0  0  0
   -7.8028    3.1015   73.3630 C   0  0  0  0  0  0
   -8.6136    4.3366   72.9641 C   0  0  0  0  0  0
   -8.8636    4.4126   71.4608 C   0  0  0  0  0  0
   -9.7994    3.4055   71.0819 O   0  0  0  0  0  0
   -7.5701    4.2819   70.6591 C   0  0  0  0  0  0
   -6.7462    3.0590   71.0570 C   0  0  0  0  0  0
   -5.1395    8.3230   75.2061 C   0  0  0  0  0  0
   -5.5418    9.3783   74.4719 N   0  0  0  0  0  0
   -6.3763    9.1245   73.4413 C   0  0  0  0  0  0
  -12.0119    8.8475   71.8934 C   0  0  0  0  0  0
  -12.6148   11.6280   70.7474 C   0  0  0  0  0  0
  -12.0934   12.8105   70.2118 C   0  0  0  0  0  0
  -13.3739   15.6590   68.7974 H   0  0  0  0  0  0
  -12.0186   14.8754   68.1251 H   0  0  0  0  0  0
   -9.8091    6.6152   70.7322 H   0  0  0  0  0  0
   -6.8567   10.2458   69.2132 H   0  0  0  0  0  0
   -5.7096    3.2787   74.9667 H   0  0  0  0  0  0
   -9.9281    3.4302   70.1208 H   0  0  0  0  0  0
  1  2  1  0  0  0
  1 42  1  0  0  0
  1 43  1  0  0  0
  2  3  2  0  0  0
  2  4  2  0  0  0
  2  5  1  0  0  0
  5  6  2  0  0  0
  5 41  1  0  0  0
  6  7  1  0  0  0
  7  8  2  0  0  0
  8  9  1  0  0  0
  8 40  1  0  0  0
  9 10  1  0  0  0
 10 11  2  0  0  0
 10 39  1  0  0  0
 11 12  1  0  0  0
 12 13  2  0  0  0
 13 14  1  0  0  0
 14 15  1  0  0  0
 14 39  2  0  0  0
 15 16  1  0  0  0
 15 44  1  0  0  0
 16 17  2  0  0  0
 16 18  1  0  0  0
 18 19  1  0  0  0
 18 21  1  0  0  0
 19 20  1  0  0  0
 20 45  1  0  0  0
 21 22  2  0  0  0
 21 38  1  0  0  0
 22 23  1  0  0  0
 23 24  1  0  0  0
 23 36  2  0  0  0
 24 25  1  0  0  0
 25 26  1  0  0  0
 26 27  1  0  0  0
 26 46  1  0  0  0
 27 28  2  0  0  0
 27 29  1  0  0  0
 29 30  1  0  0  0
 29 35  1  0  0  0
 30 31  1  0  0  0
 31 32  1  0  0  0
 32 33  1  0  0  0
 32 34  1  0  0  0
 33 47  1  0  0  0
 34 35  1  0  0  0
 36 37  1  0  0  0
 37 38  2  0  0  0
 40 41  2  0  0  0
M  END
>  <AUTHOR>
    GENERATED BY OPEN BABEL 2.3.2

>  <CHROM.1>
172.64660979,-121.09186716,-167.59436352,-121.88312195,-160.48815159,66.96782821
56.25229054,101.31496051,-178.26238503,57.79912471,-81.54713131,100.67140327
56.34152378,-177.56945294,-9.30141259,8.71726042,71.96766781,-2.17597096
0.33165258,3.09923461

>  <COMPND>
    UNNAMED

>  <MASTER>
        0    0    0    0    0    0    0    0   77    0   77    0

>  <Name>
ligands/mol10.pdb

>  <RI>
8.10934e+06

>  <Rbt.Current_Directory>
/home/rodrigo/Desktop/Rodrigo/Proyectos/test_OCONDOR/OCONDOR

>  <Rbt.Executable>
rbdock ($Id: //depot/dev/client3/rdock/2013.1/src/exe/rbdock.cxx#4 $)

>  <Rbt.Library>
libRbt.so (2013.1, Build901 2013/11/27)

>  <Rbt.Parameter_File>
dock.prm

>  <Rbt.Receptor>
rdock.prm

>  <SCORE>
-10.476

>  <SCORE.INTER>
-6.3253

>  <SCORE.INTER.CONST>
1

>  <SCORE.INTER.POLAR>
-0.894427

>  <SCORE.INTER.REPUL>
0

>  <SCORE.INTER.ROT>
13

>  <SCORE.INTER.VDW>
-21.6842

>  <SCORE.INTER.norm>
-0.154276

>  <SCORE.INTRA>
-4.15065

>  <SCORE.INTRA.DIHEDRAL>
-5.95804

>  <SCORE.INTRA.DIHEDRAL.0>
15.2397

>  <SCORE.INTRA.POLAR>
0.13644

>  <SCORE.INTRA.POLAR.0>
-0.13644

>  <SCORE.INTRA.REPUL>
0

>  <SCORE.INTRA.REPUL.0>
0

>  <SCORE.INTRA.VDW>
-1.63552

>  <SCORE.INTRA.VDW.0>
-4.66274

>  <SCORE.INTRA.norm>
-0.101235

>  <SCORE.RESTR>
0

>  <SCORE.RESTR.CAVITY>
0

>  <SCORE.RESTR.norm>
0

>  <SCORE.SYSTEM>
0

>  <SCORE.SYSTEM.CONST>
0

>  <SCORE.SYSTEM.DIHEDRAL>
0

>  <SCORE.SYSTEM.norm>
0

>  <SCORE.heavy>
41

>  <SCORE.norm>
-0.255511

$$$$
ligands/mol10.pdb
  rDOCK(R)          3D
libRbt.so/2013.1/901 2013/11/27
 47 50  0  0  0  0  0  0  0  0999 V2000
  -10.3749    7.0192   74.2036 N   0  0  0  0  0  0
  -11.1534    7.5844   72.8261 S   0  0  0  0  0  0
  -11.5245    6.4040   72.0696 O   0  0  0  0  0  0
  -12.1196    8.5340   73.2997 O   0  0  0  0  0  0
   -9.8683    8.4271   71.9491 C   0  0  0  0  0  0
   -8.5701    8.4071   72.4708 C   0  0  0  0  0  0
   -7.5450    9.0796   71.8022 C   0  0  0  0  0  0
   -7.8050    9.7768   70.6132 C   0  0  0  0  0  0
   -6.6852   10.5044   69.8960 C   0  0  0  0  0  0
   -6.7878   12.0137   69.9597 C   0  0  0  0  0  0
   -6.1723   12.7342   70.9906 C   0  0  0  0  0  0
   -6.2130   14.1270   70.9972 C   0  0  0  0  0  0
   -6.8655   14.8150   69.9708 C   0  0  0  0  0  0
   -7.5542   14.1143   68.9834 C   0  0  0  0  0  0
   -8.2599   14.8456   68.0042 N   0  0  0  0  0  0
   -9.3630   14.3390   67.3268 C   0  0  0  0  0  0
   -9.8640   13.2409   67.5647 O   0  0  0  0  0  0
   -9.9022   15.2412   66.2077 C   0  0  0  0  0  0
  -11.4421   15.1556   66.0761 C   0  0  0  0  0  0
  -12.1836   13.5129   65.7600 S   0  0  0  0  0  0
   -9.3666   16.6620   66.2398 C   0  0  0  0  0  0
   -8.1714   17.0308   65.6127 C   0  0  0  0  0  0
   -7.7348   18.3589   65.6480 C   0  0  0  0  0  0
   -6.4538   18.7908   64.9822 C   0  0  0  0  0  0
   -5.2320   17.9649   65.4046 C   0  0  0  0  0  0
   -5.0640   17.9123   66.8444 N   0  0  0  0  0  0
   -4.5447   18.9766   67.5518 C   0  0  0  0  0  0
   -4.2873   20.0569   67.0321 O   0  0  0  0  0  0
   -4.2935   18.6777   69.0312 C   0  0  0  0  0  0
   -3.6185   19.8556   69.7530 C   0  0  0  0  0  0
   -4.5772   21.0135   70.0393 C   0  0  0  0  0  0
   -5.8411   20.5616   70.7650 C   0  0  0  0  0  0
   -5.5186   20.2081   72.1084 O   0  0  0  0  0  0
   -6.5281   19.4013   70.0476 C   0  0  0  0  0  0
   -5.5779   18.2443   69.7455 C   0  0  0  0  0  0
   -8.5233   19.2756   66.3313 C   0  0  0  0  0  0
   -9.6864   18.9651   66.9356 N   0  0  0  0  0  0
  -10.0757   17.6731   66.8870 C   0  0  0  0  0  0
   -7.5065   12.7164   68.9788 C   0  0  0  0  0  0
   -9.1185    9.8000   70.1120 C   0  0  0  0  0  0
  -10.1489    9.1264   70.7763 C   0  0  0  0  0  0
  -11.0280    6.4645   74.7590 H   0  0  0  0  0  0
   -9.9929    7.8171   74.7170 H   0  0  0  0  0  0
   -8.1371   15.8509   68.0091 H   0  0  0  0  0  0
  -11.5763   12.8849   66.7867 H   0  0  0  0  0  0
   -5.1039   17.0041   67.2891 H   0  0  0  0  0  0
   -6.3236   19.9243   72.5691 H   0  0  0  0  0  0
  1  2  1  0  0  0
  1 42  1  0  0  0
  1 43  1  0  0  0
  2  3  2  0  0  0
  2  4  2  0  0  0
  2  5  1  0  0  0
  5  6  2  0  0  0
  5 41  1  0  0  0
  6  7  1  0  0  0
  7  8  2  0  0  0
  8  9  1  0  0  0
  8 40  1  0  0  0
  9 10  1  0  0  0
 10 11  2  0  0  0
 10 39  1  0  0  0
 11 12  1  0  0  0
 12 13  2  0  0  0
 13 14  1  0  0  0
 14 15  1  0  0  0
 14 39  2  0  0  0
 15 16  1  0  0  0
 15 44  1  0  0  0
 16 17  2  0  0  0
 16 18  1  0  0  0
 18 19  1  0  0  0
 18 21  1  0  0  0
 19 20  1  0  0  0
 20 45  1  0  0  0
 21 22  2  0  0  0
 21 38  1  0  0  0
 22 23  1  0  0  0
 23 24  1  0  0  0
 23 36  2  0  0  0
 24 25  1  0  0  0
 25 26  1  0  0  0
 26 27  1  0  0  0
 26 46  1  0  0  0
 27 28  2  0  0  0
 27 29  1  0  0  0
 29 30  1  0  0  0
 29 35  1  0  0  0
 30 31  1  0  0  0
 31 32  1  0  0  0
 32 33  1  0  0  0
 32 34  1  0  0  0
 33 47  1  0  0  0
 34 35  1  0  0  0
 36 37  1  0  0  0
 37 38  2  0  0  0
 40 41  2  0  0  0
M  END
>  <AUTHOR>
    GENERATED BY OPEN BABEL 2.3.2

>  <CHROM.1>
-62.94901661,3.09715562,-109.78033453,90.98039106,-153.76062876,-145.47284038
-57.76110796,87.06441093,52.45029993,-53.17377905,-53.32033089,-77.02579496
175.72098676,179.78883493,-8.10995054,14.40966734,69.12824460,-2.04628466
-0.74140825,-0.69795365

>  <COMPND>
    UNNAMED

>  <MASTER>
        0    0    0    0    0    0    0    0   77    0   77    0

>  <Name>
ligands/mol10.pdb

>  <RI>
8.10934e+06

>  <Rbt.Current_Directory>
/home/rodrigo/Desktop/Rodrigo/Proyectos/test_OCONDOR/OCONDOR

>  <Rbt.Executable>
rbdock ($Id: //depot/dev/client3/rdock/2013.1/src/exe/rbdock.cxx#4 $)

>  <Rbt.Library>
libRbt.so (2013.1, Build901 2013/11/27)

>  <Rbt.Parameter_File>
dock.prm

>  <Rbt.Receptor>
rdock.prm

>  <SCORE>
-9.06095

>  <SCORE.INTER>
-5.9358

>  <SCORE.INTER.CONST>
1

>  <SCORE.INTER.POLAR>
0

>  <SCORE.INTER.REPUL>
0

>  <SCORE.INTER.ROT>
13

>  <SCORE.INTER.VDW>
-24.3358

>  <SCORE.INTER.norm>
-0.144776

>  <SCORE.INTRA>
-3.12515

>  <SCORE.INTRA.DIHEDRAL>
-5.19413

>  <SCORE.INTRA.DIHEDRAL.0>
15.2397

>  <SCORE.INTRA.POLAR>
-0.338828

>  <SCORE.INTRA.POLAR.0>
-0.13644

>  <SCORE.INTRA.REPUL>
0

>  <SCORE.INTRA.REPUL.0>
0

>  <SCORE.INTRA.VDW>
0.623935

>  <SCORE.INTRA.VDW.0>
-4.66274

>  <SCORE.INTRA.norm>
-0.0762231

>  <SCORE.RESTR>
0

>  <SCORE.RESTR.CAVITY>
0

>  <SCORE.RESTR.norm>
0

>  <SCORE.SYSTEM>
0

>  <SCORE.SYSTEM.CONST>
0

>  <SCORE.SYSTEM.DIHEDRAL>
0

>  <SCORE.SYSTEM.norm>
0

>  <SCORE.heavy>
41

>  <SCORE.norm>
-0.220999

$$$$
ligands/mol10.pdb
  rDOCK(R)          3D
libRbt.so/2013.1/901 2013/11/27
 47 50  0  0  0  0  0  0  0  0999 V2000
   -7.0500    1.3293   74.4645 N   0  0  0  0  0  0
   -7.5322    1.9322   75.9568 S   0  0  0  0  0  0
   -8.4463    0.9483   76.5038 O   0  0  0  0  0  0
   -6.3186    2.3132   76.6215 O   0  0  0  0  0  0
   -8.4590    3.3782   75.5315 C   0  0  0  0  0  0
   -7.8823    4.3211   74.6734 C   0  0  0  0  0  0
   -8.5911    5.4767   74.3382 C   0  0  0  0  0  0
   -9.8752    5.7022   74.8555 C   0  0  0  0  0  0
  -10.6353    6.9606   74.4862 C   0  0  0  0  0  0
  -10.9146    7.1023   73.0049 C   0  0  0  0  0  0
  -11.5943    6.1003   72.3014 C   0  0  0  0  0  0
  -11.9089    6.2755   70.9553 C   0  0  0  0  0  0
  -11.5516    7.4561   70.2988 C   0  0  0  0  0  0
  -10.8024    8.4272   70.9591 C   0  0  0  0  0  0
  -10.4004    9.5737   70.2410 N   0  0  0  0  0  0
  -10.4082    9.6413   68.8526 C   0  0  0  0  0  0
  -10.8274    8.7395   68.1284 O   0  0  0  0  0  0
   -9.8065   10.9264   68.2666 C   0  0  0  0  0  0
   -8.8743   10.6421   67.0640 C   0  0  0  0  0  0
   -7.3867    9.6181   67.3582 S   0  0  0  0  0  0
  -10.8192   12.0290   68.0114 C   0  0  0  0  0  0
  -10.9798   13.1187   68.8742 C   0  0  0  0  0  0
  -11.9079   14.1228   68.5803 C   0  0  0  0  0  0
  -12.1054   15.3104   69.4864 C   0  0  0  0  0  0
  -10.8606   16.1970   69.6191 C   0  0  0  0  0  0
  -10.3109   16.5840   68.3338 N   0  0  0  0  0  0
  -10.5873   17.8116   67.7685 C   0  0  0  0  0  0
  -11.2250   18.6821   68.3507 O   0  0  0  0  0  0
  -10.0527   17.9758   66.3444 C   0  0  0  0  0  0
  -10.5015   19.3011   65.7071 C   0  0  0  0  0  0
   -9.7418   20.5149   66.2470 C   0  0  0  0  0  0
   -8.2280   20.3403   66.1695 C   0  0  0  0  0  0
   -7.8096   20.4090   64.8079 O   0  0  0  0  0  0
   -7.7698   19.0334   66.8136 C   0  0  0  0  0  0
   -8.5297   17.8158   66.2912 C   0  0  0  0  0  0
  -12.6564   13.9844   67.4185 C   0  0  0  0  0  0
  -12.5228   12.9596   66.5546 N   0  0  0  0  0  0
  -11.6219   12.0052   66.8716 C   0  0  0  0  0  0
  -10.4930    8.2486   72.3114 C   0  0  0  0  0  0
  -10.4327    4.7521   75.7293 C   0  0  0  0  0  0
   -9.7284    3.5915   76.0668 C   0  0  0  0  0  0
   -7.8656    1.2345   73.8573 H   0  0  0  0  0  0
   -6.5565    0.4454   74.6100 H   0  0  0  0  0  0
  -10.3858   10.4490   70.7503 H   0  0  0  0  0  0
   -6.8188   10.4498   68.2543 H   0  0  0  0  0  0
   -9.9238   15.8541   67.7494 H   0  0  0  0  0  0
   -6.8490   20.2829   64.7591 H   0  0  0  0  0  0
  1  2  1  0  0  0
  1 42  1  0  0  0
  1 43  1  0  0  0
  2  3  2  0  0  0
  2  4  2  0  0  0
  2  5  1  0  0  0
  5  6  2  0  0  0
  5 41  1  0  0  0
  6  7  1  0  0  0
  7  8  2  0  0  0
  8  9  1  0  0  0
  8 40  1  0  0  0
  9 10  1  0  0  0
 10 11  2  0  0  0
 10 39  1  0  0  0
 11 12  1  0  0  0
 12 13  2  0  0  0
 13 14  1  0  0  0
 14 15  1  0  0  0
 14 39  2  0  0  0
 15 16  1  0  0  0
 15 44  1  0  0  0
 16 17  2  0  0  0
 16 18  1  0  0  0
 18 19  1  0  0  0
 18 21  1  0  0  0
 19 20  1  0  0  0
 20 45  1  0  0  0
 21 22  2  0  0  0
 21 38  1  0  0  0
 22 23  1  0  0  0
 23 24  1  0  0  0
 23 36  2  0  0  0
 24 25  1  0  0  0
 25 26  1  0  0  0
 26 27  1  0  0  0
 26 46  1  0  0  0
 27 28  2  0  0  0
 27 29  1  0  0  0
 29 30  1  0  0  0
 29 35  1  0  0  0
 30 31  1  0  0  0
 31 32  1  0  0  0
 32 33  1  0  0  0
 32 34  1  0  0  0
 33 47  1  0  0  0
 34 35  1  0  0  0
 36 37  1  0  0  0
 37 38  2  0  0  0
 40 41  2  0  0  0
M  END
>  <AUTHOR>
    GENERATED BY OPEN BABEL 2.3.2

>  <CHROM.1>
61.52208237,-51.38000861,61.02319332,55.95808063,-16.91312500,136.04487125
-61.66529106,101.29841412,-61.11612478,63.05019101,51.46056914,98.36163344
174.39761895,-179.05488169,-9.74352027,10.50526744,70.33495244,-1.49334110
-0.25104145,-0.50292506

>  <COMPND>
    UNNAMED

>  <MASTER>
        0    0    0    0    0    0    0    0   77    0   77    0

>  <Name>
ligands/mol10.pdb

>  <RI>
8.10934e+06

>  <Rbt.Current_Directory>
/home/rodrigo/Desktop/Rodrigo/Proyectos/test_OCONDOR/OCONDOR

>  <Rbt.Executable>
rbdock ($Id: //depot/dev/client3/rdock/2013.1/src/exe/rbdock.cxx#4 $)

>  <Rbt.Library>
libRbt.so (2013.1, Build901 2013/11/27)

>  <Rbt.Parameter_File>
dock.prm

>  <Rbt.Receptor>
rdock.prm

>  <SCORE>
-3.67435

>  <SCORE.INTER>
-3.2049

>  <SCORE.INTER.CONST>
1

>  <SCORE.INTER.POLAR>
0

>  <SCORE.INTER.REPUL>
0.0191666

>  <SCORE.INTER.ROT>
13

>  <SCORE.INTER.VDW>
-21.7007

>  <SCORE.INTER.norm>
-0.0781683

>  <SCORE.INTRA>
-0.474822

>  <SCORE.INTRA.DIHEDRAL>
-4.20124

>  <SCORE.INTRA.DIHEDRAL.0>
15.2397

>  <SCORE.INTRA.POLAR>
0.13644

>  <SCORE.INTRA.POLAR.0>
-0.13644

>  <SCORE.INTRA.REPUL>
0

>  <SCORE.INTRA.REPUL.0>
0

>  <SCORE.INTRA.VDW>
1.1619

>  <SCORE.INTRA.VDW.0>
-4.66274

>  <SCORE.INTRA.norm>
-0.011581

>  <SCORE.RESTR>
0.00537729

>  <SCORE.RESTR.CAVITY>
0.00537729

>  <SCORE.RESTR.norm>
0.000131153

>  <SCORE.SYSTEM>
0

>  <SCORE.SYSTEM.CONST>
0

>  <SCORE.SYSTEM.DIHEDRAL>
0

>  <SCORE.SYSTEM.norm>
0

>  <SCORE.heavy>
41

>  <SCORE.norm>
-0.0896182

$$$$
