ligands/mol3.pdb
  rDOCK(R)          3D
libRbt.so/2013.1/901 2013/11/27
 45 48  0  0  0  0  0  0  0  0999 V2000
   -7.1224   10.9006   76.3725 N   0  0  0  0  0  0
   -6.5512    9.3194   76.1848 S   0  0  0  0  0  0
   -5.2295    9.3699   75.5994 O   0  0  0  0  0  0
   -6.7938    8.6497   77.4445 O   0  0  0  0  0  0
   -7.6511    8.6631   74.9632 C   0  0  0  0  0  0
   -8.6531    7.7681   75.3289 C   0  0  0  0  0  0
   -9.5257    7.2767   74.3557 C   0  0  0  0  0  0
   -9.3518    7.5627   72.9934 C   0  0  0  0  0  0
  -10.1845    6.9126   71.8772 C   0  0  0  0  0  0
  -11.5331    7.5344   71.5250 C   0  0  0  0  0  0
  -12.7338    7.0465   72.0603 C   0  0  0  0  0  0
  -13.9252    7.7496   71.9163 C   0  0  0  0  0  0
  -13.9759    8.8608   71.0860 C   0  0  0  0  0  0
  -12.8505    9.2412   70.3564 C   0  0  0  0  0  0
  -12.9004   10.2311   69.3483 N   0  0  0  0  0  0
  -12.0012   11.2615   69.1578 C   0  0  0  0  0  0
  -10.9756   11.4780   69.8057 O   0  0  0  0  0  0
  -12.4294   12.0921   68.1277 N   0  0  0  0  0  0
  -11.5359   13.0388   67.5868 C   0  0  0  0  0  0
  -10.8449   12.7144   66.4264 C   0  0  0  0  0  0
   -9.9427   13.6312   65.8903 C   0  0  0  0  0  0
   -9.7464   14.8464   66.5450 C   0  0  0  0  0  0
   -8.7916   15.8652   65.9713 C   0  0  0  0  0  0
   -9.0894   17.2925   66.4384 C   0  0  0  0  0  0
   -8.1546   18.2644   65.8987 N   0  0  0  0  0  0
   -7.7231   19.3303   66.6679 C   0  0  0  0  0  0
   -8.1053   19.5292   67.8149 O   0  0  0  0  0  0
   -6.7440   20.2479   65.9353 C   0  0  0  0  0  0
   -6.7082   21.6422   66.5681 C   0  0  0  0  0  0
   -5.8415   21.7149   67.8277 C   0  0  0  0  0  0
   -4.4355   21.1668   67.6001 C   0  0  0  0  0  0
   -3.7391   22.0115   66.6860 O   0  0  0  0  0  0
   -4.4636   19.7518   67.0352 C   0  0  0  0  0  0
   -5.3524   19.6176   65.7986 C   0  0  0  0  0  0
  -10.4027   15.1640   67.6871 N   0  0  0  0  0  0
  -11.2877   14.2700   68.1773 C   0  0  0  0  0  0
  -11.6223    8.5994   70.6091 C   0  0  0  0  0  0
   -8.3553    8.4982   72.6589 C   0  0  0  0  0  0
   -7.5178    9.0546   73.6352 C   0  0  0  0  0  0
   -7.8528   11.0171   77.0798 H   0  0  0  0  0  0
   -7.3850   11.3083   75.4680 H   0  0  0  0  0  0
  -13.7864   10.3293   68.8719 H   0  0  0  0  0  0
  -12.8705   11.5315   67.4082 H   0  0  0  0  0  0
   -7.9874   18.2869   64.9016 H   0  0  0  0  0  0
   -3.6328   22.8766   67.1182 H   0  0  0  0  0  0
  1  2  1  0  0  0
  1 40  1  0  0  0
  1 41  1  0  0  0
  2  3  2  0  0  0
  2  4  2  0  0  0
  2  5  1  0  0  0
  5  6  2  0  0  0
  5 39  1  0  0  0
  6  7  1  0  0  0
  7  8  2  0  0  0
  8  9  1  0  0  0
  8 38  1  0  0  0
  9 10  1  0  0  0
 10 11  2  0  0  0
 10 37  1  0  0  0
 11 12  1  0  0  0
 12 13  2  0  0  0
 13 14  1  0  0  0
 14 15  1  0  0  0
 14 37  2  0  0  0
 15 16  1  0  0  0
 15 42  1  0  0  0
 16 17  2  0  0  0
 16 18  1  0  0  0
 18 19  1  0  0  0
 18 43  1  0  0  0
 19 20  2  0  0  0
 19 36  1  0  0  0
 20 21  1  0  0  0
 21 22  2  0  0  0
 22 23  1  0  0  0
 22 35  1  0  0  0
 23 24  1  0  0  0
 24 25  1  0  0  0
 25 26  1  0  0  0
 25 44  1  0  0  0
 26 27  2  0  0  0
 26 28  1  0  0  0
 28 29  1  0  0  0
 28 34  1  0  0  0
 29 30  1  0  0  0
 30 31  1  0  0  0
 31 32  1  0  0  0
 31 33  1  0  0  0
 32 45  1  0  0  0
 33 34  1  0  0  0
 35 36  2  0  0  0
 38 39  2  0  0  0
M  END
>  <AUTHOR>
    GENERATED BY OPEN BABEL 2.3.2

>  <CHROM.1>
-157.39614974,-105.19603891,84.99747410,-96.46018839,135.31407320,-167.05716715
96.85969263,156.85601469,179.12011992,-142.62259903,158.23783429,64.83110265
-8.91800818,13.03055273,70.16864040,-1.83555420,-0.64943473,-0.72427671

>  <COMPND>
    UNNAMED

>  <MASTER>
        0    0    0    0    0    0    0    0   72    0   72    0

>  <Name>
ligands/mol3.pdb

>  <RI>
8.88174e+06

>  <Rbt.Current_Directory>
/home/rochoa/Projects/OCONDOR

>  <Rbt.Executable>
rbdock ($Id: //depot/dev/client3/rdock/2013.1/src/exe/rbdock.cxx#4 $)

>  <Rbt.Library>
libRbt.so (2013.1, Build901 2013/11/27)

>  <Rbt.Parameter_File>
dock.prm

>  <Rbt.Receptor>
rdock.prm

>  <SCORE>
-16.466

>  <SCORE.INTER>
-16.2211

>  <SCORE.INTER.CONST>
1

>  <SCORE.INTER.POLAR>
-3.28896

>  <SCORE.INTER.REPUL>
0

>  <SCORE.INTER.ROT>
11

>  <SCORE.INTER.VDW>
-21.4386

>  <SCORE.INTER.norm>
-0.415925

>  <SCORE.INTRA>
-0.24496

>  <SCORE.INTRA.DIHEDRAL>
1.70934

>  <SCORE.INTRA.DIHEDRAL.0>
10.441

>  <SCORE.INTRA.POLAR>
0

>  <SCORE.INTRA.POLAR.0>
0

>  <SCORE.INTRA.REPUL>
0

>  <SCORE.INTRA.REPUL.0>
0

>  <SCORE.INTRA.VDW>
-1.09963

>  <SCORE.INTRA.VDW.0>
-1.98888

>  <SCORE.INTRA.norm>
-0.00628103

>  <SCORE.RESTR>
0

>  <SCORE.RESTR.CAVITY>
0

>  <SCORE.RESTR.norm>
0

>  <SCORE.SYSTEM>
0

>  <SCORE.SYSTEM.CONST>
0

>  <SCORE.SYSTEM.DIHEDRAL>
0

>  <SCORE.SYSTEM.norm>
0

>  <SCORE.heavy>
39

>  <SCORE.norm>
-0.422206

$$$$
ligands/mol3.pdb
  rDOCK(R)          3D
libRbt.so/2013.1/901 2013/11/27
 45 48  0  0  0  0  0  0  0  0999 V2000
   -8.1571    4.8084   77.8134 N   0  0  0  0  0  0
   -9.5324    3.8858   77.4678 S   0  0  0  0  0  0
   -9.1165    2.5444   77.1217 O   0  0  0  0  0  0
  -10.4659    4.1323   78.5457 O   0  0  0  0  0  0
  -10.1408    4.6529   75.9932 C   0  0  0  0  0  0
  -10.6879    3.8786   74.9734 C   0  0  0  0  0  0
  -11.1828    4.5019   73.8260 C   0  0  0  0  0  0
  -11.0381    5.8808   73.6120 C   0  0  0  0  0  0
  -11.4173    6.5793   72.2966 C   0  0  0  0  0  0
  -12.7666    7.2880   72.2167 C   0  0  0  0  0  0
  -13.9487    6.5947   71.9195 C   0  0  0  0  0  0
  -15.1938    7.1965   72.0685 C   0  0  0  0  0  0
  -15.2766    8.5541   72.3456 C   0  0  0  0  0  0
  -14.1173    9.3246   72.4225 C   0  0  0  0  0  0
  -14.1495   10.7360   72.4975 N   0  0  0  0  0  0
  -13.1799   11.6091   72.0459 C   0  0  0  0  0  0
  -12.1347   11.3168   71.4621 O   0  0  0  0  0  0
  -13.5143   12.9173   72.3796 N   0  0  0  0  0  0
  -12.8799   13.9844   71.7119 C   0  0  0  0  0  0
  -13.2540   14.2677   70.4046 C   0  0  0  0  0  0
  -12.6220   15.3064   69.7236 C   0  0  0  0  0  0
  -11.6172   16.0244   70.3707 C   0  0  0  0  0  0
  -10.9340   17.1689   69.6621 C   0  0  0  0  0  0
   -9.6849   16.7338   68.8909 C   0  0  0  0  0  0
   -8.9873   17.8515   68.2794 N   0  0  0  0  0  0
   -8.2708   17.6798   67.1085 C   0  0  0  0  0  0
   -8.1648   16.6008   66.5378 O   0  0  0  0  0  0
   -7.6040   18.9635   66.6136 C   0  0  0  0  0  0
   -6.6213   19.5157   67.6505 C   0  0  0  0  0  0
   -5.2665   18.8031   67.6426 C   0  0  0  0  0  0
   -4.6427   18.7530   66.2507 C   0  0  0  0  0  0
   -4.3089   20.0749   65.8324 O   0  0  0  0  0  0
   -5.5903   18.1399   65.2269 C   0  0  0  0  0  0
   -6.9739   18.7902   65.2260 C   0  0  0  0  0  0
  -11.2335   15.7435   71.6395 N   0  0  0  0  0  0
  -11.8735   14.7471   72.2878 C   0  0  0  0  0  0
  -12.8648    8.6806   72.3965 C   0  0  0  0  0  0
  -10.5159    6.6411   74.6745 C   0  0  0  0  0  0
  -10.0807    6.0362   75.8615 C   0  0  0  0  0  0
   -8.3413    5.7800   78.0768 H   0  0  0  0  0  0
   -7.4625    4.7316   77.0619 H   0  0  0  0  0  0
  -14.8272   11.1270   73.1374 H   0  0  0  0  0  0
  -14.5228   13.0145   72.3792 H   0  0  0  0  0  0
   -8.8445   18.6968   68.8158 H   0  0  0  0  0  0
   -3.8300   19.9971   64.9891 H   0  0  0  0  0  0
  1  2  1  0  0  0
  1 40  1  0  0  0
  1 41  1  0  0  0
  2  3  2  0  0  0
  2  4  2  0  0  0
  2  5  1  0  0  0
  5  6  2  0  0  0
  5 39  1  0  0  0
  6  7  1  0  0  0
  7  8  2  0  0  0
  8  9  1  0  0  0
  8 38  1  0  0  0
  9 10  1  0  0  0
 10 11  2  0  0  0
 10 37  1  0  0  0
 11 12  1  0  0  0
 12 13  2  0  0  0
 13 14  1  0  0  0
 14 15  1  0  0  0
 14 37  2  0  0  0
 15 16  1  0  0  0
 15 42  1  0  0  0
 16 17  2  0  0  0
 16 18  1  0  0  0
 18 19  1  0  0  0
 18 43  1  0  0  0
 19 20  2  0  0  0
 19 36  1  0  0  0
 20 21  1  0  0  0
 21 22  2  0  0  0
 22 23  1  0  0  0
 22 35  1  0  0  0
 23 24  1  0  0  0
 24 25  1  0  0  0
 25 26  1  0  0  0
 25 44  1  0  0  0
 26 27  2  0  0  0
 26 28  1  0  0  0
 28 29  1  0  0  0
 28 34  1  0  0  0
 29 30  1  0  0  0
 30 31  1  0  0  0
 31 32  1  0  0  0
 31 33  1  0  0  0
 32 45  1  0  0  0
 33 34  1  0  0  0
 35 36  2  0  0  0
 38 39  2  0  0  0
M  END
>  <AUTHOR>
    GENERATED BY OPEN BABEL 2.3.2

>  <CHROM.1>
-179.69440299,141.98826973,98.74299471,-83.47405747,-151.55082242,-162.47069103
74.53288691,-90.94992243,-176.48016720,-150.02439297,59.89059581,174.06409203
-10.38128656,11.51094411,71.60327486,-1.78515465,-0.00453179,-0.56520788

>  <COMPND>
    UNNAMED

>  <MASTER>
        0    0    0    0    0    0    0    0   72    0   72    0

>  <Name>
ligands/mol3.pdb

>  <RI>
8.88174e+06

>  <Rbt.Current_Directory>
/home/rochoa/Projects/OCONDOR

>  <Rbt.Executable>
rbdock ($Id: //depot/dev/client3/rdock/2013.1/src/exe/rbdock.cxx#4 $)

>  <Rbt.Library>
libRbt.so (2013.1, Build901 2013/11/27)

>  <Rbt.Parameter_File>
dock.prm

>  <Rbt.Receptor>
rdock.prm

>  <SCORE>
-16.8039

>  <SCORE.INTER>
-15.6466

>  <SCORE.INTER.CONST>
1

>  <SCORE.INTER.POLAR>
0

>  <SCORE.INTER.REPUL>
0

>  <SCORE.INTER.ROT>
11

>  <SCORE.INTER.VDW>
-32.0466

>  <SCORE.INTER.norm>
-0.401196

>  <SCORE.INTRA>
-1.15724

>  <SCORE.INTRA.DIHEDRAL>
0.0487345

>  <SCORE.INTRA.DIHEDRAL.0>
10.441

>  <SCORE.INTRA.POLAR>
0

>  <SCORE.INTRA.POLAR.0>
0

>  <SCORE.INTRA.REPUL>
0

>  <SCORE.INTRA.REPUL.0>
0

>  <SCORE.INTRA.VDW>
-1.18161

>  <SCORE.INTRA.VDW.0>
-1.98888

>  <SCORE.INTRA.norm>
-0.0296729

>  <SCORE.RESTR>
0

>  <SCORE.RESTR.CAVITY>
0

>  <SCORE.RESTR.norm>
0

>  <SCORE.SYSTEM>
0

>  <SCORE.SYSTEM.CONST>
0

>  <SCORE.SYSTEM.DIHEDRAL>
0

>  <SCORE.SYSTEM.norm>
0

>  <SCORE.heavy>
39

>  <SCORE.norm>
-0.430869

$$$$
ligands/mol3.pdb
  rDOCK(R)          3D
libRbt.so/2013.1/901 2013/11/27
 45 48  0  0  0  0  0  0  0  0999 V2000
  -12.9391   14.0630   72.2116 N   0  0  0  0  0  0
  -11.8722   15.2256   71.6016 S   0  0  0  0  0  0
  -12.4167   16.5393   71.8663 O   0  0  0  0  0  0
  -10.5543   14.8473   72.0643 O   0  0  0  0  0  0
  -11.9704   14.9492   69.8561 C   0  0  0  0  0  0
  -11.6403   15.9665   68.9645 C   0  0  0  0  0  0
  -11.7027   15.7246   67.5906 C   0  0  0  0  0  0
  -12.2049   14.5213   67.0731 C   0  0  0  0  0  0
  -12.4456   14.2773   65.5749 C   0  0  0  0  0  0
  -11.7151   13.1171   64.9043 C   0  0  0  0  0  0
  -11.3353   13.1642   63.5553 C   0  0  0  0  0  0
  -10.4802   12.2102   63.0138 C   0  0  0  0  0  0
  -10.1299   11.0932   63.7595 C   0  0  0  0  0  0
  -10.6745   10.8999   65.0282 C   0  0  0  0  0  0
  -10.5165    9.6911   65.7441 N   0  0  0  0  0  0
  -10.9834    9.4167   67.0143 C   0  0  0  0  0  0
  -11.6541   10.1600   67.7328 O   0  0  0  0  0  0
  -10.5527    8.1601   67.4264 N   0  0  0  0  0  0
  -11.0097    7.6417   68.6550 C   0  0  0  0  0  0
  -10.7723    8.3695   69.8139 C   0  0  0  0  0  0
  -11.1996    7.8610   71.0390 C   0  0  0  0  0  0
  -11.8418    6.6239   71.0689 C   0  0  0  0  0  0
  -12.3345    6.0628   72.3808 C   0  0  0  0  0  0
  -11.3492    5.0792   73.0177 C   0  0  0  0  0  0
  -10.0180    5.6400   73.1695 N   0  0  0  0  0  0
   -9.6989    6.4096   74.2739 C   0  0  0  0  0  0
  -10.5008    6.6768   75.1609 O   0  0  0  0  0  0
   -8.2557    6.9140   74.2633 C   0  0  0  0  0  0
   -8.0637    8.0723   75.2468 C   0  0  0  0  0  0
   -7.8983    7.6151   76.6982 C   0  0  0  0  0  0
   -6.8074    6.5597   76.8560 C   0  0  0  0  0  0
   -5.5390    7.1403   76.5592 O   0  0  0  0  0  0
   -7.0308    5.3709   75.9290 C   0  0  0  0  0  0
   -7.2449    5.7795   74.4714 C   0  0  0  0  0  0
  -12.0619    5.8987   69.9456 N   0  0  0  0  0  0
  -11.6585    6.4199   68.7674 C   0  0  0  0  0  0
  -11.4346   11.9327   65.6111 C   0  0  0  0  0  0
  -12.4949   13.5001   67.9966 C   0  0  0  0  0  0
  -12.3685   13.7055   69.3771 C   0  0  0  0  0  0
  -12.6486   13.0917   72.0718 H   0  0  0  0  0  0
  -13.8976   14.2352   71.8878 H   0  0  0  0  0  0
   -9.8097    9.0603   65.3916 H   0  0  0  0  0  0
  -10.6732    7.5002   66.6671 H   0  0  0  0  0  0
   -9.3940    5.6515   72.3738 H   0  0  0  0  0  0
   -5.3688    7.8193   77.2349 H   0  0  0  0  0  0
  1  2  1  0  0  0
  1 40  1  0  0  0
  1 41  1  0  0  0
  2  3  2  0  0  0
  2  4  2  0  0  0
  2  5  1  0  0  0
  5  6  2  0  0  0
  5 39  1  0  0  0
  6  7  1  0  0  0
  7  8  2  0  0  0
  8  9  1  0  0  0
  8 38  1  0  0  0
  9 10  1  0  0  0
 10 11  2  0  0  0
 10 37  1  0  0  0
 11 12  1  0  0  0
 12 13  2  0  0  0
 13 14  1  0  0  0
 14 15  1  0  0  0
 14 37  2  0  0  0
 15 16  1  0  0  0
 15 42  1  0  0  0
 16 17  2  0  0  0
 16 18  1  0  0  0
 18 19  1  0  0  0
 18 43  1  0  0  0
 19 20  2  0  0  0
 19 36  1  0  0  0
 20 21  1  0  0  0
 21 22  2  0  0  0
 22 23  1  0  0  0
 22 35  1  0  0  0
 23 24  1  0  0  0
 24 25  1  0  0  0
 25 26  1  0  0  0
 25 44  1  0  0  0
 26 27  2  0  0  0
 26 28  1  0  0  0
 28 29  1  0  0  0
 28 34  1  0  0  0
 29 30  1  0  0  0
 30 31  1  0  0  0
 31 32  1  0  0  0
 31 33  1  0  0  0
 32 45  1  0  0  0
 33 34  1  0  0  0
 35 36  2  0  0  0
 38 39  2  0  0  0
M  END
>  <AUTHOR>
    GENERATED BY OPEN BABEL 2.3.2

>  <CHROM.1>
179.72421844,156.71021992,121.27805347,-148.82253874,178.08450774,-174.94160870
-57.76779992,-96.32778919,53.76932492,84.70633338,163.06077559,64.76952686
-10.65603341,10.23170828,70.32462940,3.12745006,1.29248677,-2.38869987

>  <COMPND>
    UNNAMED

>  <MASTER>
        0    0    0    0    0    0    0    0   72    0   72    0

>  <Name>
ligands/mol3.pdb

>  <RI>
8.88174e+06

>  <Rbt.Current_Directory>
/home/rochoa/Projects/OCONDOR

>  <Rbt.Executable>
rbdock ($Id: //depot/dev/client3/rdock/2013.1/src/exe/rbdock.cxx#4 $)

>  <Rbt.Library>
libRbt.so (2013.1, Build901 2013/11/27)

>  <Rbt.Parameter_File>
dock.prm

>  <Rbt.Receptor>
rdock.prm

>  <SCORE>
-15.1617

>  <SCORE.INTER>
-12.1798

>  <SCORE.INTER.CONST>
1

>  <SCORE.INTER.POLAR>
0

>  <SCORE.INTER.REPUL>
0

>  <SCORE.INTER.ROT>
11

>  <SCORE.INTER.VDW>
-28.5798

>  <SCORE.INTER.norm>
-0.312303

>  <SCORE.INTRA>
-2.98194

>  <SCORE.INTRA.DIHEDRAL>
-3.70529

>  <SCORE.INTRA.DIHEDRAL.0>
10.441

>  <SCORE.INTRA.POLAR>
0

>  <SCORE.INTRA.POLAR.0>
0

>  <SCORE.INTRA.REPUL>
0

>  <SCORE.INTRA.REPUL.0>
0

>  <SCORE.INTRA.VDW>
-1.12929

>  <SCORE.INTRA.VDW.0>
-1.98888

>  <SCORE.INTRA.norm>
-0.0764599

>  <SCORE.RESTR>
0

>  <SCORE.RESTR.CAVITY>
0

>  <SCORE.RESTR.norm>
0

>  <SCORE.SYSTEM>
0

>  <SCORE.SYSTEM.CONST>
0

>  <SCORE.SYSTEM.DIHEDRAL>
0

>  <SCORE.SYSTEM.norm>
0

>  <SCORE.heavy>
39

>  <SCORE.norm>
-0.388762

$$$$
ligands/mol3.pdb
  rDOCK(R)          3D
libRbt.so/2013.1/901 2013/11/27
 45 48  0  0  0  0  0  0  0  0999 V2000
  -12.9834   14.0882   62.9924 N   0  0  0  0  0  0
  -12.4227   14.0504   64.5880 S   0  0  0  0  0  0
  -11.5447   15.1805   64.7983 O   0  0  0  0  0  0
  -13.5863   13.8332   65.4204 O   0  0  0  0  0  0
  -11.4241   12.5891   64.6027 C   0  0  0  0  0  0
  -11.5220   11.6614   63.5689 C   0  0  0  0  0  0
  -10.7113   10.5245   63.5854 C   0  0  0  0  0  0
   -9.8816   10.2229   64.6755 C   0  0  0  0  0  0
   -9.1016    8.9054   64.8088 C   0  0  0  0  0  0
   -8.6770    8.4539   66.2034 C   0  0  0  0  0  0
   -7.3457    8.5421   66.6351 C   0  0  0  0  0  0
   -7.0061    8.3431   67.9690 C   0  0  0  0  0  0
   -7.9606    7.8787   68.8634 C   0  0  0  0  0  0
   -9.2426    7.5618   68.4167 C   0  0  0  0  0  0
  -10.1863    6.8972   69.2330 N   0  0  0  0  0  0
   -9.9474    6.3064   70.4580 C   0  0  0  0  0  0
   -8.8812    6.2881   71.0755 O   0  0  0  0  0  0
  -11.0937    5.6665   70.9176 N   0  0  0  0  0  0
  -10.9692    4.5846   71.8125 C   0  0  0  0  0  0
  -10.2783    3.4535   71.3972 C   0  0  0  0  0  0
  -10.1639    2.3673   72.2627 C   0  0  0  0  0  0
  -10.7620    2.4406   73.5200 C   0  0  0  0  0  0
  -10.6322    1.2862   74.4839 C   0  0  0  0  0  0
   -9.3338    1.3274   75.2941 C   0  0  0  0  0  0
   -8.9576    2.6763   75.6800 N   0  0  0  0  0  0
   -7.7860    3.2430   75.2107 C   0  0  0  0  0  0
   -7.0023    2.6541   74.4757 O   0  0  0  0  0  0
   -7.5551    4.6653   75.7215 C   0  0  0  0  0  0
   -8.6323    5.6239   75.2051 C   0  0  0  0  0  0
   -9.9415    5.5477   75.9946 C   0  0  0  0  0  0
   -9.7258    5.7046   77.4972 C   0  0  0  0  0  0
   -9.2636    7.0249   77.7749 O   0  0  0  0  0  0
   -8.7055    4.7062   78.0304 C   0  0  0  0  0  0
   -7.3933    4.7134   77.2459 C   0  0  0  0  0  0
  -11.4529    3.5328   73.9269 N   0  0  0  0  0  0
  -11.5332    4.5817   73.0807 C   0  0  0  0  0  0
   -9.6069    7.8879   67.0957 C   0  0  0  0  0  0
   -9.7756   11.1959   65.6865 C   0  0  0  0  0  0
  -10.5307   12.3759   65.6472 C   0  0  0  0  0  0
  -12.9538   15.0075   62.5437 H   0  0  0  0  0  0
  -13.9052   13.6441   62.9142 H   0  0  0  0  0  0
  -11.0505    6.6328   68.7804 H   0  0  0  0  0  0
  -11.7531    6.3604   71.2495 H   0  0  0  0  0  0
   -9.4338    3.1185   76.4547 H   0  0  0  0  0  0
   -9.9713    7.6384   77.5114 H   0  0  0  0  0  0
  1  2  1  0  0  0
  1 40  1  0  0  0
  1 41  1  0  0  0
  2  3  2  0  0  0
  2  4  2  0  0  0
  2  5  1  0  0  0
  5  6  2  0  0  0
  5 39  1  0  0  0
  6  7  1  0  0  0
  7  8  2  0  0  0
  8  9  1  0  0  0
  8 38  1  0  0  0
  9 10  1  0  0  0
 10 11  2  0  0  0
 10 37  1  0  0  0
 11 12  1  0  0  0
 12 13  2  0  0  0
 13 14  1  0  0  0
 14 15  1  0  0  0
 14 37  2  0  0  0
 15 16  1  0  0  0
 15 42  1  0  0  0
 16 17  2  0  0  0
 16 18  1  0  0  0
 18 19  1  0  0  0
 18 43  1  0  0  0
 19 20  2  0  0  0
 19 36  1  0  0  0
 20 21  1  0  0  0
 21 22  2  0  0  0
 22 23  1  0  0  0
 22 35  1  0  0  0
 23 24  1  0  0  0
 24 25  1  0  0  0
 25 26  1  0  0  0
 25 44  1  0  0  0
 26 27  2  0  0  0
 26 28  1  0  0  0
 28 29  1  0  0  0
 28 34  1  0  0  0
 29 30  1  0  0  0
 30 31  1  0  0  0
 31 32  1  0  0  0
 31 33  1  0  0  0
 32 45  1  0  0  0
 33 34  1  0  0  0
 35 36  2  0  0  0
 38 39  2  0  0  0
M  END
>  <AUTHOR>
    GENERATED BY OPEN BABEL 2.3.2

>  <CHROM.1>
-22.63710769,-14.67103560,-157.16209219,-105.88615413,-10.09041649,154.32252326
-61.17813691,84.26342705,38.10029874,-116.42676609,-64.47674340,63.44207109
-9.94809147,7.41453161,70.27654536,2.08415165,1.25904710,-1.38617969

>  <COMPND>
    UNNAMED

>  <MASTER>
        0    0    0    0    0    0    0    0   72    0   72    0

>  <Name>
ligands/mol3.pdb

>  <RI>
8.88174e+06

>  <Rbt.Current_Directory>
/home/rochoa/Projects/OCONDOR

>  <Rbt.Executable>
rbdock ($Id: //depot/dev/client3/rdock/2013.1/src/exe/rbdock.cxx#4 $)

>  <Rbt.Library>
libRbt.so (2013.1, Build901 2013/11/27)

>  <Rbt.Parameter_File>
dock.prm

>  <Rbt.Receptor>
rdock.prm

>  <SCORE>
-12.8547

>  <SCORE.INTER>
-10.7162

>  <SCORE.INTER.CONST>
1

>  <SCORE.INTER.POLAR>
-2.65972

>  <SCORE.INTER.REPUL>
0.12187

>  <SCORE.INTER.ROT>
11

>  <SCORE.INTER.VDW>
-18.6825

>  <SCORE.INTER.norm>
-0.274773

>  <SCORE.INTRA>
-2.13857

>  <SCORE.INTRA.DIHEDRAL>
-0.430964

>  <SCORE.INTRA.DIHEDRAL.0>
10.441

>  <SCORE.INTRA.POLAR>
0

>  <SCORE.INTRA.POLAR.0>
0

>  <SCORE.INTRA.REPUL>
0

>  <SCORE.INTRA.REPUL.0>
0

>  <SCORE.INTRA.VDW>
-1.92309

>  <SCORE.INTRA.VDW.0>
-1.98888

>  <SCORE.INTRA.norm>
-0.0548352

>  <SCORE.RESTR>
0

>  <SCORE.RESTR.CAVITY>
0

>  <SCORE.RESTR.norm>
0

>  <SCORE.SYSTEM>
0

>  <SCORE.SYSTEM.CONST>
0

>  <SCORE.SYSTEM.DIHEDRAL>
0

>  <SCORE.SYSTEM.norm>
0

>  <SCORE.heavy>
39

>  <SCORE.norm>
-0.329608

$$$$
ligands/mol3.pdb
  rDOCK(R)          3D
libRbt.so/2013.1/901 2013/11/27
 45 48  0  0  0  0  0  0  0  0999 V2000
  -12.7075   16.3445   63.6200 N   0  0  0  0  0  0
  -12.0839   15.1152   64.6008 S   0  0  0  0  0  0
  -13.1448   14.6124   65.4456 O   0  0  0  0  0  0
  -11.3370   14.2387   63.7245 O   0  0  0  0  0  0
  -10.9502   15.9965   65.6356 C   0  0  0  0  0  0
  -10.4015   15.3823   66.7584 C   0  0  0  0  0  0
   -9.4921   16.0849   67.5518 C   0  0  0  0  0  0
   -9.2015   17.4381   67.3230 C   0  0  0  0  0  0
   -8.3385   18.2914   68.2659 C   0  0  0  0  0  0
   -7.0780   17.6664   68.8571 C   0  0  0  0  0  0
   -6.3221   18.3185   69.8419 C   0  0  0  0  0  0
   -5.3133   17.6555   70.5326 C   0  0  0  0  0  0
   -4.9208   16.3857   70.1322 C   0  0  0  0  0  0
   -5.4985   15.7965   69.0086 C   0  0  0  0  0  0
   -4.9992   14.6033   68.4379 N   0  0  0  0  0  0
   -5.6300   13.8094   67.5006 C   0  0  0  0  0  0
   -6.7200   14.0198   66.9658 O   0  0  0  0  0  0
   -4.8766   12.6677   67.2489 N   0  0  0  0  0  0
   -5.4863   11.5618   66.6225 C   0  0  0  0  0  0
   -6.3489   10.7675   67.3669 C   0  0  0  0  0  0
   -6.9438    9.6587   66.7681 C   0  0  0  0  0  0
   -6.6430    9.3676   65.4382 C   0  0  0  0  0  0
   -7.2927    8.1854   64.7607 C   0  0  0  0  0  0
   -8.7936    8.3799   64.5294 C   0  0  0  0  0  0
   -9.5484    8.4347   65.7692 N   0  0  0  0  0  0
  -10.0767    7.2830   66.3244 C   0  0  0  0  0  0
   -9.9623    6.1763   65.8113 O   0  0  0  0  0  0
  -10.8385    7.5334   67.6261 C   0  0  0  0  0  0
  -11.5314    6.2595   68.1192 C   0  0  0  0  0  0
  -10.5887    5.2999   68.8498 C   0  0  0  0  0  0
   -9.8133    5.9858   69.9711 C   0  0  0  0  0  0
  -10.7183    6.3856   70.9982 O   0  0  0  0  0  0
   -9.0644    7.2156   69.4721 C   0  0  0  0  0  0
   -9.9555    8.1862   68.6967 C   0  0  0  0  0  0
   -5.7890   10.1265   64.7096 N   0  0  0  0  0  0
   -5.2404   11.2079   65.3031 C   0  0  0  0  0  0
   -6.6027   16.4233   68.3988 C   0  0  0  0  0  0
   -9.7412   18.0201   66.1611 C   0  0  0  0  0  0
  -10.5996   17.3039   65.3159 C   0  0  0  0  0  0
  -13.3743   16.0354   62.9080 H   0  0  0  0  0  0
  -11.9550   16.9213   63.2273 H   0  0  0  0  0  0
   -4.2223   14.1754   68.9227 H   0  0  0  0  0  0
   -4.0109   12.9325   66.7940 H   0  0  0  0  0  0
   -9.8714    9.3301   66.1107 H   0  0  0  0  0  0
  -10.1867    6.7763   71.7133 H   0  0  0  0  0  0
  1  2  1  0  0  0
  1 40  1  0  0  0
  1 41  1  0  0  0
  2  3  2  0  0  0
  2  4  2  0  0  0
  2  5  1  0  0  0
  5  6  2  0  0  0
  5 39  1  0  0  0
  6  7  1  0  0  0
  7  8  2  0  0  0
  8  9  1  0  0  0
  8 38  1  0  0  0
  9 10  1  0  0  0
 10 11  2  0  0  0
 10 37  1  0  0  0
 11 12  1  0  0  0
 12 13  2  0  0  0
 13 14  1  0  0  0
 14 15  1  0  0  0
 14 37  2  0  0  0
 15 16  1  0  0  0
 15 42  1  0  0  0
 16 17  2  0  0  0
 16 18  1  0  0  0
 18 19  1  0  0  0
 18 43  1  0  0  0
 19 20  2  0  0  0
 19 36  1  0  0  0
 20 21  1  0  0  0
 21 22  2  0  0  0
 22 23  1  0  0  0
 22 35  1  0  0  0
 23 24  1  0  0  0
 24 25  1  0  0  0
 25 26  1  0  0  0
 25 44  1  0  0  0
 26 27  2  0  0  0
 26 28  1  0  0  0
 28 29  1  0  0  0
 28 34  1  0  0  0
 29 30  1  0  0  0
 30 31  1  0  0  0
 31 32  1  0  0  0
 31 33  1  0  0  0
 32 45  1  0  0  0
 33 34  1  0  0  0
 35 36  2  0  0  0
 38 39  2  0  0  0
M  END
>  <AUTHOR>
    GENERATED BY OPEN BABEL 2.3.2

>  <CHROM.1>
-68.62844268,168.13650484,41.63553331,-172.50169294,166.85441318,162.61424236
-74.94376582,68.79773562,-66.45966916,-90.84064356,173.79249525,177.17264715
-8.67428210,12.41229119,67.02688689,1.43343270,-0.50774190,-0.09275243

>  <COMPND>
    UNNAMED

>  <MASTER>
        0    0    0    0    0    0    0    0   72    0   72    0

>  <Name>
ligands/mol3.pdb

>  <RI>
8.88174e+06

>  <Rbt.Current_Directory>
/home/rochoa/Projects/OCONDOR

>  <Rbt.Executable>
rbdock ($Id: //depot/dev/client3/rdock/2013.1/src/exe/rbdock.cxx#4 $)

>  <Rbt.Library>
libRbt.so (2013.1, Build901 2013/11/27)

>  <Rbt.Parameter_File>
dock.prm

>  <Rbt.Receptor>
rdock.prm

>  <SCORE>
-12.5927

>  <SCORE.INTER>
-9.93012

>  <SCORE.INTER.CONST>
1

>  <SCORE.INTER.POLAR>
-1.61414

>  <SCORE.INTER.REPUL>
0.00118995

>  <SCORE.INTER.ROT>
11

>  <SCORE.INTER.VDW>
-20.848

>  <SCORE.INTER.norm>
-0.254618

>  <SCORE.INTRA>
-2.66253

>  <SCORE.INTRA.DIHEDRAL>
-3.18514

>  <SCORE.INTRA.DIHEDRAL.0>
10.441

>  <SCORE.INTRA.POLAR>
0

>  <SCORE.INTRA.POLAR.0>
0

>  <SCORE.INTRA.REPUL>
0

>  <SCORE.INTRA.REPUL.0>
0

>  <SCORE.INTRA.VDW>
-1.06997

>  <SCORE.INTRA.VDW.0>
-1.98888

>  <SCORE.INTRA.norm>
-0.0682701

>  <SCORE.RESTR>
0

>  <SCORE.RESTR.CAVITY>
0

>  <SCORE.RESTR.norm>
0

>  <SCORE.SYSTEM>
0

>  <SCORE.SYSTEM.CONST>
0

>  <SCORE.SYSTEM.DIHEDRAL>
0

>  <SCORE.SYSTEM.norm>
0

>  <SCORE.heavy>
39

>  <SCORE.norm>
-0.322888

$$$$
ligands/mol3.pdb
  rDOCK(R)          3D
libRbt.so/2013.1/901 2013/11/27
 45 48  0  0  0  0  0  0  0  0999 V2000
   -6.4816   18.6881   67.8464 N   0  0  0  0  0  0
   -7.6978   19.7580   67.3584 S   0  0  0  0  0  0
   -8.4005   20.2282   68.5319 O   0  0  0  0  0  0
   -7.0777   20.6789   66.4302 O   0  0  0  0  0  0
   -8.7987   18.6968   66.4669 C   0  0  0  0  0  0
   -8.3852   17.4264   66.0746 C   0  0  0  0  0  0
   -9.2738   16.5941   65.3907 C   0  0  0  0  0  0
  -10.5376   17.0412   64.9773 C   0  0  0  0  0  0
  -11.4776   16.2180   64.0825 C   0  0  0  0  0  0
  -11.6195   14.7245   64.3628 C   0  0  0  0  0  0
  -12.6939   13.9772   63.8592 C   0  0  0  0  0  0
  -12.6996   12.5880   63.9267 C   0  0  0  0  0  0
  -11.7197   11.9273   64.6547 C   0  0  0  0  0  0
  -10.7624   12.6547   65.3605 C   0  0  0  0  0  0
   -9.8730   12.0472   66.2763 N   0  0  0  0  0  0
   -9.8239   10.7097   66.6158 C   0  0  0  0  0  0
  -10.5175    9.8026   66.1525 O   0  0  0  0  0  0
   -8.8851   10.5004   67.6205 N   0  0  0  0  0  0
   -9.3108   10.0155   68.8737 C   0  0  0  0  0  0
  -10.6359   10.2038   69.2449 C   0  0  0  0  0  0
  -11.0676    9.7485   70.4892 C   0  0  0  0  0  0
  -10.1500    9.1285   71.3362 C   0  0  0  0  0  0
  -10.5989    8.6060   72.6795 C   0  0  0  0  0  0
  -10.0438    7.2146   72.9952 C   0  0  0  0  0  0
  -10.4186    6.7498   74.3194 N   0  0  0  0  0  0
   -9.7550    5.6881   74.9079 C   0  0  0  0  0  0
   -8.8470    5.0758   74.3586 O   0  0  0  0  0  0
  -10.2852    5.3396   76.2989 C   0  0  0  0  0  0
   -9.9566    3.8912   76.6729 C   0  0  0  0  0  0
   -8.5203    3.7030   77.1678 C   0  0  0  0  0  0
   -8.1610    4.6677   78.2944 C   0  0  0  0  0  0
   -8.9383    4.3587   79.4496 O   0  0  0  0  0  0
   -8.4203    6.1175   77.9031 C   0  0  0  0  0  0
   -9.8308    6.3489   77.3607 C   0  0  0  0  0  0
   -8.8514    8.9563   70.9898 N   0  0  0  0  0  0
   -8.4597    9.3861   69.7714 C   0  0  0  0  0  0
  -10.6928   14.0499   65.1797 C   0  0  0  0  0  0
  -10.9413   18.3144   65.4200 C   0  0  0  0  0  0
  -10.0853   19.1332   66.1689 C   0  0  0  0  0  0
   -6.8136   17.7972   68.2251 H   0  0  0  0  0  0
   -5.8096   19.1516   68.4683 H   0  0  0  0  0  0
   -9.3891   12.6760   66.9024 H   0  0  0  0  0  0
   -8.1114    9.9627   67.2477 H   0  0  0  0  0  0
  -11.2959    7.0550   74.7191 H   0  0  0  0  0  0
   -8.6885    3.4619   79.7323 H   0  0  0  0  0  0
  1  2  1  0  0  0
  1 40  1  0  0  0
  1 41  1  0  0  0
  2  3  2  0  0  0
  2  4  2  0  0  0
  2  5  1  0  0  0
  5  6  2  0  0  0
  5 39  1  0  0  0
  6  7  1  0  0  0
  7  8  2  0  0  0
  8  9  1  0  0  0
  8 38  1  0  0  0
  9 10  1  0  0  0
 10 11  2  0  0  0
 10 37  1  0  0  0
 11 12  1  0  0  0
 12 13  2  0  0  0
 13 14  1  0  0  0
 14 15  1  0  0  0
 14 37  2  0  0  0
 15 16  1  0  0  0
 15 42  1  0  0  0
 16 17  2  0  0  0
 16 18  1  0  0  0
 18 19  1  0  0  0
 18 43  1  0  0  0
 19 20  2  0  0  0
 19 36  1  0  0  0
 20 21  1  0  0  0
 21 22  2  0  0  0
 22 23  1  0  0  0
 22 35  1  0  0  0
 23 24  1  0  0  0
 24 25  1  0  0  0
 25 26  1  0  0  0
 25 44  1  0  0  0
 26 27  2  0  0  0
 26 28  1  0  0  0
 28 29  1  0  0  0
 28 34  1  0  0  0
 29 30  1  0  0  0
 30 31  1  0  0  0
 31 32  1  0  0  0
 31 33  1  0  0  0
 32 45  1  0  0  0
 33 34  1  0  0  0
 35 36  2  0  0  0
 38 39  2  0  0  0
M  END
>  <AUTHOR>
    GENERATED BY OPEN BABEL 2.3.2

>  <CHROM.1>
68.74631174,-14.51872358,42.20369952,162.41566766,-0.93561518,116.97705947
-22.64648784,135.93872215,176.78399378,-163.88767434,157.20221731,63.22253768
-9.63596743,11.79427950,69.69032582,-1.58169364,1.09330842,2.44358120

>  <COMPND>
    UNNAMED

>  <MASTER>
        0    0    0    0    0    0    0    0   72    0   72    0

>  <Name>
ligands/mol3.pdb

>  <RI>
8.88174e+06

>  <Rbt.Current_Directory>
/home/rochoa/Projects/OCONDOR

>  <Rbt.Executable>
rbdock ($Id: //depot/dev/client3/rdock/2013.1/src/exe/rbdock.cxx#4 $)

>  <Rbt.Library>
libRbt.so (2013.1, Build901 2013/11/27)

>  <Rbt.Parameter_File>
dock.prm

>  <Rbt.Receptor>
rdock.prm

>  <SCORE>
-10.5741

>  <SCORE.INTER>
-9.25807

>  <SCORE.INTER.CONST>
1

>  <SCORE.INTER.POLAR>
0

>  <SCORE.INTER.REPUL>
8.60391e-05

>  <SCORE.INTER.ROT>
11

>  <SCORE.INTER.VDW>
-25.6585

>  <SCORE.INTER.norm>
-0.237387

>  <SCORE.INTRA>
-1.31605

>  <SCORE.INTRA.DIHEDRAL>
-3.32595

>  <SCORE.INTRA.DIHEDRAL.0>
10.441

>  <SCORE.INTRA.POLAR>
0

>  <SCORE.INTRA.POLAR.0>
0

>  <SCORE.INTRA.REPUL>
0

>  <SCORE.INTRA.REPUL.0>
0

>  <SCORE.INTRA.VDW>
0.346923

>  <SCORE.INTRA.VDW.0>
-1.98888

>  <SCORE.INTRA.norm>
-0.033745

>  <SCORE.RESTR>
0

>  <SCORE.RESTR.CAVITY>
0

>  <SCORE.RESTR.norm>
0

>  <SCORE.SYSTEM>
0

>  <SCORE.SYSTEM.CONST>
0

>  <SCORE.SYSTEM.DIHEDRAL>
0

>  <SCORE.SYSTEM.norm>
0

>  <SCORE.heavy>
39

>  <SCORE.norm>
-0.271131

$$$$
ligands/mol3.pdb
  rDOCK(R)          3D
libRbt.so/2013.1/901 2013/11/27
 45 48  0  0  0  0  0  0  0  0999 V2000
   -8.9472    1.3938   74.3915 N   0  0  0  0  0  0
  -10.5227    1.7230   74.9124 S   0  0  0  0  0  0
  -11.4517    1.0266   74.0499 O   0  0  0  0  0  0
  -10.5254    1.5202   76.3452 O   0  0  0  0  0  0
  -10.6775    3.4539   74.5762 C   0  0  0  0  0  0
  -11.3114    3.8897   73.4155 C   0  0  0  0  0  0
  -11.4437    5.2591   73.1764 C   0  0  0  0  0  0
  -10.8505    6.2171   74.0121 C   0  0  0  0  0  0
  -10.8301    7.7212   73.6971 C   0  0  0  0  0  0
  -11.7822    8.2495   72.6277 C   0  0  0  0  0  0
  -13.1661    8.3230   72.8419 C   0  0  0  0  0  0
  -13.9961    9.0076   71.9605 C   0  0  0  0  0  0
  -13.4883    9.4796   70.7580 C   0  0  0  0  0  0
  -12.1630    9.2231   70.4093 C   0  0  0  0  0  0
  -11.6523    9.4982   69.1201 N   0  0  0  0  0  0
  -10.3380    9.7669   68.7928 C   0  0  0  0  0  0
   -9.3717    9.7751   69.5574 O   0  0  0  0  0  0
  -10.2315   10.0846   67.4429 N   0  0  0  0  0  0
  -10.5652   11.3840   67.0105 C   0  0  0  0  0  0
   -9.6901   12.4248   67.2935 C   0  0  0  0  0  0
  -10.0151   13.7187   66.8909 C   0  0  0  0  0  0
  -11.2217   13.9355   66.2267 C   0  0  0  0  0  0
  -11.5853   15.3243   65.7601 C   0  0  0  0  0  0
  -10.5501   15.9237   64.8046 C   0  0  0  0  0  0
   -9.4692   16.5982   65.5022 N   0  0  0  0  0  0
   -9.7299   17.6671   66.3408 C   0  0  0  0  0  0
  -10.8550   18.1142   66.5293 O   0  0  0  0  0  0
   -8.4728   18.2500   66.9867 C   0  0  0  0  0  0
   -7.7160   17.1877   67.7896 C   0  0  0  0  0  0
   -6.8506   16.2720   66.9202 C   0  0  0  0  0  0
   -5.9142   17.0537   66.0031 C   0  0  0  0  0  0
   -4.9495   17.7486   66.7908 O   0  0  0  0  0  0
   -6.6704   18.0650   65.1501 C   0  0  0  0  0  0
   -7.5837   18.9766   65.9699 C   0  0  0  0  0  0
  -12.0897   12.9293   65.9620 N   0  0  0  0  0  0
  -11.7451   11.6805   66.3423 C   0  0  0  0  0  0
  -11.3046    8.6428   71.3634 C   0  0  0  0  0  0
  -10.2496    5.7488   75.1951 C   0  0  0  0  0  0
  -10.1725    4.3795   75.4833 C   0  0  0  0  0  0
   -8.7080    0.4004   74.3334 H   0  0  0  0  0  0
   -8.2597    1.9309   74.9319 H   0  0  0  0  0  0
  -12.3374    9.7446   68.4190 H   0  0  0  0  0  0
   -9.3235    9.7919   67.1017 H   0  0  0  0  0  0
   -8.5149   16.4307   65.2124 H   0  0  0  0  0  0
   -4.3902   17.0771   67.2184 H   0  0  0  0  0  0
  1  2  1  0  0  0
  1 40  1  0  0  0
  1 41  1  0  0  0
  2  3  2  0  0  0
  2  4  2  0  0  0
  2  5  1  0  0  0
  5  6  2  0  0  0
  5 39  1  0  0  0
  6  7  1  0  0  0
  7  8  2  0  0  0
  8  9  1  0  0  0
  8 38  1  0  0  0
  9 10  1  0  0  0
 10 11  2  0  0  0
 10 37  1  0  0  0
 11 12  1  0  0  0
 12 13  2  0  0  0
 13 14  1  0  0  0
 14 15  1  0  0  0
 14 37  2  0  0  0
 15 16  1  0  0  0
 15 42  1  0  0  0
 16 17  2  0  0  0
 16 18  1  0  0  0
 18 19  1  0  0  0
 18 43  1  0  0  0
 19 20  2  0  0  0
 19 36  1  0  0  0
 20 21  1  0  0  0
 21 22  2  0  0  0
 22 23  1  0  0  0
 22 35  1  0  0  0
 23 24  1  0  0  0
 24 25  1  0  0  0
 25 26  1  0  0  0
 25 44  1  0  0  0
 26 27  2  0  0  0
 26 28  1  0  0  0
 28 29  1  0  0  0
 28 34  1  0  0  0
 29 30  1  0  0  0
 30 31  1  0  0  0
 31 32  1  0  0  0
 31 33  1  0  0  0
 32 45  1  0  0  0
 33 34  1  0  0  0
 35 36  2  0  0  0
 38 39  2  0  0  0
M  END
>  <AUTHOR>
    GENERATED BY OPEN BABEL 2.3.2

>  <CHROM.1>
-55.39337078,98.22558502,15.80749095,71.07427821,153.92696631,79.88679156
73.81849467,58.10548936,-86.56585636,-59.78847345,-57.86450258,66.23457972
-10.20259575,10.42148583,69.85851150,-1.71872107,-0.30859798,-0.60326555

>  <COMPND>
    UNNAMED

>  <MASTER>
        0    0    0    0    0    0    0    0   72    0   72    0

>  <Name>
ligands/mol3.pdb

>  <RI>
8.88174e+06

>  <Rbt.Current_Directory>
/home/rochoa/Projects/OCONDOR

>  <Rbt.Executable>
rbdock ($Id: //depot/dev/client3/rdock/2013.1/src/exe/rbdock.cxx#4 $)

>  <Rbt.Library>
libRbt.so (2013.1, Build901 2013/11/27)

>  <Rbt.Parameter_File>
dock.prm

>  <Rbt.Receptor>
rdock.prm

>  <SCORE>
-9.89857

>  <SCORE.INTER>
-9.04666

>  <SCORE.INTER.CONST>
1

>  <SCORE.INTER.POLAR>
-0.212493

>  <SCORE.INTER.REPUL>
0.0552944

>  <SCORE.INTER.ROT>
11

>  <SCORE.INTER.VDW>
-25.0007

>  <SCORE.INTER.norm>
-0.231966

>  <SCORE.INTRA>
-0.851912

>  <SCORE.INTRA.DIHEDRAL>
-0.199619

>  <SCORE.INTRA.DIHEDRAL.0>
10.441

>  <SCORE.INTRA.POLAR>
0

>  <SCORE.INTRA.POLAR.0>
0

>  <SCORE.INTRA.REPUL>
0

>  <SCORE.INTRA.REPUL.0>
0

>  <SCORE.INTRA.VDW>
-0.752103

>  <SCORE.INTRA.VDW.0>
-1.98888

>  <SCORE.INTRA.norm>
-0.0218439

>  <SCORE.RESTR>
0

>  <SCORE.RESTR.CAVITY>
0

>  <SCORE.RESTR.norm>
0

>  <SCORE.SYSTEM>
0

>  <SCORE.SYSTEM.CONST>
0

>  <SCORE.SYSTEM.DIHEDRAL>
0

>  <SCORE.SYSTEM.norm>
0

>  <SCORE.heavy>
39

>  <SCORE.norm>
-0.25381

$$$$
ligands/mol3.pdb
  rDOCK(R)          3D
libRbt.so/2013.1/901 2013/11/27
 45 48  0  0  0  0  0  0  0  0999 V2000
   -6.0754   18.8812   66.9724 N   0  0  0  0  0  0
   -6.4582   17.6659   65.8595 S   0  0  0  0  0  0
   -6.7758   18.2824   64.5902 O   0  0  0  0  0  0
   -5.4155   16.6691   65.9748 O   0  0  0  0  0  0
   -7.9607   17.0062   66.5230 C   0  0  0  0  0  0
   -8.0349   16.6407   67.8645 C   0  0  0  0  0  0
   -9.2345   16.1419   68.3766 C   0  0  0  0  0  0
  -10.3398   15.8824   67.5527 C   0  0  0  0  0  0
  -11.6170   15.1819   68.0426 C   0  0  0  0  0  0
  -11.7217   13.6685   67.8754 C   0  0  0  0  0  0
  -11.2607   13.0192   66.7212 C   0  0  0  0  0  0
  -11.1526   11.6336   66.6685 C   0  0  0  0  0  0
  -11.6683   10.8604   67.6994 C   0  0  0  0  0  0
  -12.3400   11.4664   68.7601 C   0  0  0  0  0  0
  -13.0582   10.7237   69.7251 N   0  0  0  0  0  0
  -13.2869   11.0807   71.0392 C   0  0  0  0  0  0
  -12.9414   12.1259   71.5930 O   0  0  0  0  0  0
  -13.9470   10.0567   71.7102 N   0  0  0  0  0  0
  -13.2612    8.8561   71.9848 C   0  0  0  0  0  0
  -13.9140    7.6508   71.7609 C   0  0  0  0  0  0
  -13.2572    6.4554   72.0466 C   0  0  0  0  0  0
  -11.9643    6.5035   72.5661 C   0  0  0  0  0  0
  -11.2235    5.2218   72.8619 C   0  0  0  0  0  0
  -10.3743    4.7371   71.6838 C   0  0  0  0  0  0
   -9.5547    3.5862   72.0209 N   0  0  0  0  0  0
   -8.3674    3.3463   71.3528 C   0  0  0  0  0  0
   -7.9511    4.0575   70.4460 O   0  0  0  0  0  0
   -7.6414    2.0924   71.8406 C   0  0  0  0  0  0
   -6.4526    1.7507   70.9374 C   0  0  0  0  0  0
   -5.2071    2.5913   71.2294 C   0  0  0  0  0  0
   -4.8167    2.5615   72.7044 C   0  0  0  0  0  0
   -4.4011    1.2440   73.0587 O   0  0  0  0  0  0
   -5.9761    2.9683   73.6057 C   0  0  0  0  0  0
   -7.2585    2.1855   73.3228 C   0  0  0  0  0  0
  -11.3264    7.6749   72.8045 N   0  0  0  0  0  0
  -11.9732    8.8203   72.5006 C   0  0  0  0  0  0
  -12.3296   12.8712   68.8633 C   0  0  0  0  0  0
  -10.2479   16.2962   66.2109 C   0  0  0  0  0  0
   -9.0731   16.8646   65.7002 C   0  0  0  0  0  0
   -5.3475   19.5336   66.6693 H   0  0  0  0  0  0
   -5.8848   18.4858   67.9001 H   0  0  0  0  0  0
  -13.2196    9.7514   69.5010 H   0  0  0  0  0  0
  -14.3974   10.4344   72.5354 H   0  0  0  0  0  0
   -9.9509    2.8473   72.5863 H   0  0  0  0  0  0
   -3.5885    1.0548   72.5581 H   0  0  0  0  0  0
  1  2  1  0  0  0
  1 40  1  0  0  0
  1 41  1  0  0  0
  2  3  2  0  0  0
  2  4  2  0  0  0
  2  5  1  0  0  0
  5  6  2  0  0  0
  5 39  1  0  0  0
  6  7  1  0  0  0
  7  8  2  0  0  0
  8  9  1  0  0  0
  8 38  1  0  0  0
  9 10  1  0  0  0
 10 11  2  0  0  0
 10 37  1  0  0  0
 11 12  1  0  0  0
 12 13  2  0  0  0
 13 14  1  0  0  0
 14 15  1  0  0  0
 14 37  2  0  0  0
 15 16  1  0  0  0
 15 42  1  0  0  0
 16 17  2  0  0  0
 16 18  1  0  0  0
 18 19  1  0  0  0
 18 43  1  0  0  0
 19 20  2  0  0  0
 19 36  1  0  0  0
 20 21  1  0  0  0
 21 22  2  0  0  0
 22 23  1  0  0  0
 22 35  1  0  0  0
 23 24  1  0  0  0
 24 25  1  0  0  0
 25 26  1  0  0  0
 25 44  1  0  0  0
 26 27  2  0  0  0
 26 28  1  0  0  0
 28 29  1  0  0  0
 28 34  1  0  0  0
 29 30  1  0  0  0
 30 31  1  0  0  0
 31 32  1  0  0  0
 31 33  1  0  0  0
 32 45  1  0  0  0
 33 34  1  0  0  0
 35 36  2  0  0  0
 38 39  2  0  0  0
M  END
>  <AUTHOR>
    GENERATED BY OPEN BABEL 2.3.2

>  <CHROM.1>
-53.39083844,-50.14173566,-93.13786617,-39.88667606,151.70434049,69.54691932
-135.89183371,91.58516359,173.81272012,-152.81554247,171.36784487,65.19445780
-9.52539908,10.09367423,69.70428006,-1.59925158,-0.23312959,2.72978854

>  <COMPND>
    UNNAMED

>  <MASTER>
        0    0    0    0    0    0    0    0   72    0   72    0

>  <Name>
ligands/mol3.pdb

>  <RI>
8.88174e+06

>  <Rbt.Current_Directory>
/home/rochoa/Projects/OCONDOR

>  <Rbt.Executable>
rbdock ($Id: //depot/dev/client3/rdock/2013.1/src/exe/rbdock.cxx#4 $)

>  <Rbt.Library>
libRbt.so (2013.1, Build901 2013/11/27)

>  <Rbt.Parameter_File>
dock.prm

>  <Rbt.Receptor>
rdock.prm

>  <SCORE>
-11.6321

>  <SCORE.INTER>
-8.87603

>  <SCORE.INTER.CONST>
1

>  <SCORE.INTER.POLAR>
-0.698514

>  <SCORE.INTER.REPUL>
0

>  <SCORE.INTER.ROT>
11

>  <SCORE.INTER.VDW>
-22.9011

>  <SCORE.INTER.norm>
-0.22759

>  <SCORE.INTRA>
-2.75609

>  <SCORE.INTRA.DIHEDRAL>
-2.33338

>  <SCORE.INTRA.DIHEDRAL.0>
10.441

>  <SCORE.INTRA.POLAR>
0

>  <SCORE.INTRA.POLAR.0>
0

>  <SCORE.INTRA.REPUL>
0

>  <SCORE.INTRA.REPUL.0>
0

>  <SCORE.INTRA.VDW>
-1.5894

>  <SCORE.INTRA.VDW.0>
-1.98888

>  <SCORE.INTRA.norm>
-0.070669

>  <SCORE.RESTR>
0

>  <SCORE.RESTR.CAVITY>
0

>  <SCORE.RESTR.norm>
0

>  <SCORE.SYSTEM>
0

>  <SCORE.SYSTEM.CONST>
0

>  <SCORE.SYSTEM.DIHEDRAL>
0

>  <SCORE.SYSTEM.norm>
0

>  <SCORE.heavy>
39

>  <SCORE.norm>
-0.298259

$$$$
ligands/mol3.pdb
  rDOCK(R)          3D
libRbt.so/2013.1/901 2013/11/27
 45 48  0  0  0  0  0  0  0  0999 V2000
   -6.0369   16.2518   66.5455 N   0  0  0  0  0  0
   -6.8333   17.7368   66.3952 S   0  0  0  0  0  0
   -6.2272   18.6827   67.3063 O   0  0  0  0  0  0
   -6.9223   18.0061   64.9762 O   0  0  0  0  0  0
   -8.4495   17.3624   67.0122 C   0  0  0  0  0  0
   -8.8560   17.8438   68.2539 C   0  0  0  0  0  0
  -10.1421   17.5568   68.7159 C   0  0  0  0  0  0
  -11.0030   16.6945   68.0208 C   0  0  0  0  0  0
  -12.3572   16.2217   68.5726 C   0  0  0  0  0  0
  -12.3683   15.0692   69.5729 C   0  0  0  0  0  0
  -12.6537   15.2723   70.9308 C   0  0  0  0  0  0
  -12.8826   14.2005   71.7871 C   0  0  0  0  0  0
  -12.6569   12.9036   71.3468 C   0  0  0  0  0  0
  -12.1518   12.6769   70.0673 C   0  0  0  0  0  0
  -11.7126   11.4025   69.6413 N   0  0  0  0  0  0
  -11.6299   10.9504   68.3392 C   0  0  0  0  0  0
  -11.8850   11.5889   67.3165 O   0  0  0  0  0  0
  -11.2479    9.6133   68.3153 N   0  0  0  0  0  0
  -10.0491    9.2258   68.9475 C   0  0  0  0  0  0
   -9.9879    7.9750   69.5484 C   0  0  0  0  0  0
   -8.8168    7.5851   70.1953 C   0  0  0  0  0  0
   -7.7410    8.4710   70.2351 C   0  0  0  0  0  0
   -6.4538    8.0626   70.9098 C   0  0  0  0  0  0
   -6.4835    8.2669   72.4268 C   0  0  0  0  0  0
   -7.3490    7.3161   73.1027 N   0  0  0  0  0  0
   -8.6881    7.6002   73.3027 C   0  0  0  0  0  0
   -9.2120    8.6502   72.9503 O   0  0  0  0  0  0
   -9.4409    6.4856   74.0296 C   0  0  0  0  0  0
  -10.9404    6.7871   74.1093 C   0  0  0  0  0  0
  -11.6946    6.4608   72.8178 C   0  0  0  0  0  0
  -11.4344    5.0366   72.3351 C   0  0  0  0  0  0
  -11.9872    4.1107   73.2685 O   0  0  0  0  0  0
   -9.9447    4.7520   72.1867 C   0  0  0  0  0  0
   -9.1398    5.1030   73.4381 C   0  0  0  0  0  0
   -7.7979    9.6999   69.6672 N   0  0  0  0  0  0
   -8.9345   10.0489   69.0275 C   0  0  0  0  0  0
  -12.0466   13.7590   69.1717 C   0  0  0  0  0  0
  -10.5797   16.2542   66.7531 C   0  0  0  0  0  0
   -9.3184   16.5934   66.2451 C   0  0  0  0  0  0
   -5.0867   16.2287   66.1662 H   0  0  0  0  0  0
   -6.6182   15.4835   66.1919 H   0  0  0  0  0  0
  -11.6751   10.6886   70.3559 H   0  0  0  0  0  0
  -12.0312    9.0371   68.6000 H   0  0  0  0  0  0
   -6.9341    6.5493   73.6150 H   0  0  0  0  0  0
  -11.6074    4.3196   74.1395 H   0  0  0  0  0  0
  1  2  1  0  0  0
  1 40  1  0  0  0
  1 41  1  0  0  0
  2  3  2  0  0  0
  2  4  2  0  0  0
  2  5  1  0  0  0
  5  6  2  0  0  0
  5 39  1  0  0  0
  6  7  1  0  0  0
  7  8  2  0  0  0
  8  9  1  0  0  0
  8 38  1  0  0  0
  9 10  1  0  0  0
 10 11  2  0  0  0
 10 37  1  0  0  0
 11 12  1  0  0  0
 12 13  2  0  0  0
 13 14  1  0  0  0
 14 15  1  0  0  0
 14 37  2  0  0  0
 15 16  1  0  0  0
 15 42  1  0  0  0
 16 17  2  0  0  0
 16 18  1  0  0  0
 18 19  1  0  0  0
 18 43  1  0  0  0
 19 20  2  0  0  0
 19 36  1  0  0  0
 20 21  1  0  0  0
 21 22  2  0  0  0
 22 23  1  0  0  0
 22 35  1  0  0  0
 23 24  1  0  0  0
 24 25  1  0  0  0
 25 26  1  0  0  0
 25 44  1  0  0  0
 26 27  2  0  0  0
 26 28  1  0  0  0
 28 29  1  0  0  0
 28 34  1  0  0  0
 29 30  1  0  0  0
 30 31  1  0  0  0
 31 32  1  0  0  0
 31 33  1  0  0  0
 32 45  1  0  0  0
 33 34  1  0  0  0
 35 36  2  0  0  0
 38 39  2  0  0  0
M  END
>  <AUTHOR>
    GENERATED BY OPEN BABEL 2.3.2

>  <CHROM.1>
-71.16296258,107.52996541,-80.77475891,108.11599034,156.36562438,-56.40115439
146.17406724,-83.05222058,71.23220912,-89.50163896,-174.61803096,-55.12284228
-9.69929436,11.65471239,69.82875427,-1.47528745,-0.21795207,2.70114162

>  <COMPND>
    UNNAMED

>  <MASTER>
        0    0    0    0    0    0    0    0   72    0   72    0

>  <Name>
ligands/mol3.pdb

>  <RI>
8.88174e+06

>  <Rbt.Current_Directory>
/home/rochoa/Projects/OCONDOR

>  <Rbt.Executable>
rbdock ($Id: //depot/dev/client3/rdock/2013.1/src/exe/rbdock.cxx#4 $)

>  <Rbt.Library>
libRbt.so (2013.1, Build901 2013/11/27)

>  <Rbt.Parameter_File>
dock.prm

>  <Rbt.Receptor>
rdock.prm

>  <SCORE>
-9.99158

>  <SCORE.INTER>
-7.18321

>  <SCORE.INTER.CONST>
1

>  <SCORE.INTER.POLAR>
-0.867539

>  <SCORE.INTER.REPUL>
0.0399171

>  <SCORE.INTER.ROT>
11

>  <SCORE.INTER.VDW>
-20.8332

>  <SCORE.INTER.norm>
-0.184185

>  <SCORE.INTRA>
-2.80837

>  <SCORE.INTRA.DIHEDRAL>
-1.67574

>  <SCORE.INTRA.DIHEDRAL.0>
10.441

>  <SCORE.INTRA.POLAR>
0

>  <SCORE.INTRA.POLAR.0>
0

>  <SCORE.INTRA.REPUL>
0

>  <SCORE.INTRA.REPUL.0>
0

>  <SCORE.INTRA.VDW>
-1.9705

>  <SCORE.INTRA.VDW.0>
-1.98888

>  <SCORE.INTRA.norm>
-0.0720096

>  <SCORE.RESTR>
0

>  <SCORE.RESTR.CAVITY>
0

>  <SCORE.RESTR.norm>
0

>  <SCORE.SYSTEM>
0

>  <SCORE.SYSTEM.CONST>
0

>  <SCORE.SYSTEM.DIHEDRAL>
0

>  <SCORE.SYSTEM.norm>
0

>  <SCORE.heavy>
39

>  <SCORE.norm>
-0.256194

$$$$
ligands/mol3.pdb
  rDOCK(R)          3D
libRbt.so/2013.1/901 2013/11/27
 45 48  0  0  0  0  0  0  0  0999 V2000
  -11.7185   14.9363   73.3386 N   0  0  0  0  0  0
  -13.0933   14.7097   72.3791 S   0  0  0  0  0  0
  -13.6771   13.4260   72.7007 O   0  0  0  0  0  0
  -13.8599   15.9332   72.4756 O   0  0  0  0  0  0
  -12.4035   14.5898   70.7535 C   0  0  0  0  0  0
  -11.3726   15.4407   70.3637 C   0  0  0  0  0  0
  -10.8254   15.3182   69.0848 C   0  0  0  0  0  0
  -11.3626   14.4411   68.1309 C   0  0  0  0  0  0
  -10.8994   14.3937   66.6662 C   0  0  0  0  0  0
  -10.1319   13.1637   66.1896 C   0  0  0  0  0  0
  -10.4861   12.4804   65.0173 C   0  0  0  0  0  0
   -9.6556   11.5073   64.4717 C   0  0  0  0  0  0
   -8.5434   11.0720   65.1790 C   0  0  0  0  0  0
   -8.2873   11.5697   66.4559 C   0  0  0  0  0  0
   -7.2953   11.0183   67.2987 N   0  0  0  0  0  0
   -7.2158   11.1432   68.6716 C   0  0  0  0  0  0
   -8.0151   11.7218   69.4096 O   0  0  0  0  0  0
   -6.0507   10.5483   69.1442 N   0  0  0  0  0  0
   -5.9773   10.1491   70.4941 C   0  0  0  0  0  0
   -7.0821    9.5320   71.0665 C   0  0  0  0  0  0
   -7.0330    9.1498   72.4057 C   0  0  0  0  0  0
   -5.8776    9.4128   73.1404 C   0  0  0  0  0  0
   -5.7916    8.9875   74.5862 C   0  0  0  0  0  0
   -6.2486    7.5440   74.8126 C   0  0  0  0  0  0
   -7.6949    7.4119   74.8352 N   0  0  0  0  0  0
   -8.2876    6.1668   74.9468 C   0  0  0  0  0  0
   -7.6498    5.1227   75.0125 O   0  0  0  0  0  0
   -9.8154    6.2225   74.9535 C   0  0  0  0  0  0
  -10.3542    6.8741   73.6764 C   0  0  0  0  0  0
  -10.3892    5.9226   72.4779 C   0  0  0  0  0  0
  -11.1163    4.6178   72.7907 C   0  0  0  0  0  0
  -12.4974    4.8881   73.0224 O   0  0  0  0  0  0
  -10.5390    3.9284   74.0210 C   0  0  0  0  0  0
  -10.4429    4.8517   75.2357 C   0  0  0  0  0  0
   -4.8017   10.0302   72.5952 N   0  0  0  0  0  0
   -4.8630   10.3729   71.2907 C   0  0  0  0  0  0
   -9.0611   12.6426   66.9399 C   0  0  0  0  0  0
  -12.3780   13.5689   68.5648 C   0  0  0  0  0  0
  -12.8882   13.6324   69.8685 C   0  0  0  0  0  0
  -11.8547   14.7677   74.3387 H   0  0  0  0  0  0
  -11.2831   15.8465   73.1509 H   0  0  0  0  0  0
   -6.4528   10.7024   66.8382 H   0  0  0  0  0  0
   -5.7752    9.8055   68.5126 H   0  0  0  0  0  0
   -8.2663    8.1975   74.5542 H   0  0  0  0  0  0
  -12.5435    5.6155   73.6668 H   0  0  0  0  0  0
  1  2  1  0  0  0
  1 40  1  0  0  0
  1 41  1  0  0  0
  2  3  2  0  0  0
  2  4  2  0  0  0
  2  5  1  0  0  0
  5  6  2  0  0  0
  5 39  1  0  0  0
  6  7  1  0  0  0
  7  8  2  0  0  0
  8  9  1  0  0  0
  8 38  1  0  0  0
  9 10  1  0  0  0
 10 11  2  0  0  0
 10 37  1  0  0  0
 11 12  1  0  0  0
 12 13  2  0  0  0
 13 14  1  0  0  0
 14 15  1  0  0  0
 14 37  2  0  0  0
 15 16  1  0  0  0
 15 42  1  0  0  0
 16 17  2  0  0  0
 16 18  1  0  0  0
 18 19  1  0  0  0
 18 43  1  0  0  0
 19 20  2  0  0  0
 19 36  1  0  0  0
 20 21  1  0  0  0
 21 22  2  0  0  0
 22 23  1  0  0  0
 22 35  1  0  0  0
 23 24  1  0  0  0
 24 25  1  0  0  0
 25 26  1  0  0  0
 25 44  1  0  0  0
 26 27  2  0  0  0
 26 28  1  0  0  0
 28 29  1  0  0  0
 28 34  1  0  0  0
 29 30  1  0  0  0
 30 31  1  0  0  0
 31 32  1  0  0  0
 31 33  1  0  0  0
 32 45  1  0  0  0
 33 34  1  0  0  0
 35 36  2  0  0  0
 38 39  2  0  0  0
M  END
>  <AUTHOR>
    GENERATED BY OPEN BABEL 2.3.2

>  <CHROM.1>
-49.82736626,-41.45806935,110.91484296,130.47659163,-159.29945131,-158.26343533
41.72022622,47.21904084,-78.69726804,176.00749795,58.79864199,-50.00109601
-9.54377161,10.56835422,71.03831066,1.89605148,0.65252254,-0.81792186

>  <COMPND>
    UNNAMED

>  <MASTER>
        0    0    0    0    0    0    0    0   72    0   72    0

>  <Name>
ligands/mol3.pdb

>  <RI>
8.88174e+06

>  <Rbt.Current_Directory>
/home/rochoa/Projects/OCONDOR

>  <Rbt.Executable>
rbdock ($Id: //depot/dev/client3/rdock/2013.1/src/exe/rbdock.cxx#4 $)

>  <Rbt.Library>
libRbt.so (2013.1, Build901 2013/11/27)

>  <Rbt.Parameter_File>
dock.prm

>  <Rbt.Receptor>
rdock.prm

>  <SCORE>
-0.836992

>  <SCORE.INTER>
-1.91049

>  <SCORE.INTER.CONST>
1

>  <SCORE.INTER.POLAR>
-0.0630329

>  <SCORE.INTER.REPUL>
0.647724

>  <SCORE.INTER.ROT>
11

>  <SCORE.INTER.VDW>
-21.3348

>  <SCORE.INTER.norm>
-0.048987

>  <SCORE.INTRA>
1.0735

>  <SCORE.INTRA.DIHEDRAL>
0.58283

>  <SCORE.INTRA.DIHEDRAL.0>
10.441

>  <SCORE.INTRA.POLAR>
0

>  <SCORE.INTRA.POLAR.0>
0

>  <SCORE.INTRA.REPUL>
0

>  <SCORE.INTRA.REPUL.0>
0

>  <SCORE.INTRA.VDW>
0.782088

>  <SCORE.INTRA.VDW.0>
-1.98888

>  <SCORE.INTRA.norm>
0.0275257

>  <SCORE.RESTR>
0

>  <SCORE.RESTR.CAVITY>
0

>  <SCORE.RESTR.norm>
0

>  <SCORE.SYSTEM>
0

>  <SCORE.SYSTEM.CONST>
0

>  <SCORE.SYSTEM.DIHEDRAL>
0

>  <SCORE.SYSTEM.norm>
0

>  <SCORE.heavy>
39

>  <SCORE.norm>
-0.0214613

$$$$
