ligands/mol5.pdb
  rDOCK(R)          3D
libRbt.so/2013.1/901 2013/11/27
 46 49  0  0  0  0  0  0  0  0999 V2000
   -8.7123   18.9731   65.8835 N   0  0  0  0  0  0
  -10.2542   18.8830   66.5920 S   0  0  0  0  0  0
  -10.0983   18.6244   68.0190 O   0  0  0  0  0  0
  -11.0160   19.9931   66.1016 O   0  0  0  0  0  0
  -10.9142   17.4142   65.8237 C   0  0  0  0  0  0
  -11.0832   16.2319   66.5462 C   0  0  0  0  0  0
  -11.5779   15.0967   65.8958 C   0  0  0  0  0  0
  -11.9172   15.1312   64.5334 C   0  0  0  0  0  0
  -12.3587   13.8638   63.8148 C   0  0  0  0  0  0
  -11.6337   12.5990   64.2383 C   0  0  0  0  0  0
  -10.8634   11.8611   63.3275 C   0  0  0  0  0  0
  -10.2341   10.6840   63.7155 C   0  0  0  0  0  0
  -10.4084   10.1961   65.0029 C   0  0  0  0  0  0
  -11.2494   10.8461   65.9106 C   0  0  0  0  0  0
  -11.5745   10.2773   67.1743 N   0  0  0  0  0  0
  -10.7206    9.4270   67.8622 C   0  0  0  0  0  0
   -9.5044    9.4138   67.7267 O   0  0  0  0  0  0
  -11.3857    8.5631   68.7194 N   0  0  0  0  0  0
  -10.7927    7.6018   69.5143 C   0  0  0  0  0  0
  -11.5010    6.8396   70.3625 C   0  0  0  0  0  0
  -10.8518    5.7992   71.2564 C   0  0  0  0  0  0
  -10.6942    6.3286   72.6940 C   0  0  0  0  0  0
   -9.8062    7.5762   72.8078 C   0  0  0  0  0  0
   -9.3556    7.8173   74.1768 N   0  0  0  0  0  0
   -8.1863    8.4678   74.4896 C   0  0  0  0  0  0
   -7.4086    8.8740   73.6267 O   0  0  0  0  0  0
   -7.8770    8.5571   76.0035 C   0  0  0  0  0  0
   -6.6792    7.6900   76.4281 C   0  0  0  0  0  0
   -5.3189    8.2653   76.0162 C   0  0  0  0  0  0
   -5.1339    9.7512   76.3198 C   0  0  0  0  0  0
   -4.7696    9.9206   77.6851 O   0  0  0  0  0  0
   -6.3734   10.5987   75.9933 C   0  0  0  0  0  0
   -7.6632    9.9817   76.5282 C   0  0  0  0  0  0
   -9.5035    5.3688   70.6655 C   0  0  0  0  0  0
   -9.1167    4.2068   70.7840 O   0  0  0  0  0  0
   -8.7163    6.3437   70.1073 N   0  0  0  0  0  0
   -9.3176    7.3549   69.5699 C   0  0  0  0  0  0
  -11.8187   12.0754   65.5375 C   0  0  0  0  0  0
  -11.7690   16.3375   63.8306 C   0  0  0  0  0  0
  -11.2699   17.4781   64.4694 C   0  0  0  0  0  0
   -8.6129   18.5116   64.9773 H   0  0  0  0  0  0
   -8.2726   19.9012   65.9018 H   0  0  0  0  0  0
  -12.5538   10.2409   67.4202 H   0  0  0  0  0  0
  -12.3900    8.6463   68.7727 H   0  0  0  0  0  0
  -10.0145    7.5957   74.9186 H   0  0  0  0  0  0
   -4.5828   10.8551   77.8531 H   0  0  0  0  0  0
  1  2  1  0  0  0
  1 41  1  0  0  0
  1 42  1  0  0  0
  2  3  2  0  0  0
  2  4  2  0  0  0
  2  5  1  0  0  0
  5  6  2  0  0  0
  5 40  1  0  0  0
  6  7  1  0  0  0
  7  8  2  0  0  0
  8  9  1  0  0  0
  8 39  1  0  0  0
  9 10  1  0  0  0
 10 11  2  0  0  0
 10 38  1  0  0  0
 11 12  1  0  0  0
 12 13  2  0  0  0
 13 14  1  0  0  0
 14 15  1  0  0  0
 14 38  2  0  0  0
 15 16  1  0  0  0
 15 43  1  0  0  0
 16 17  2  0  0  0
 16 18  1  0  0  0
 18 19  1  0  0  0
 18 44  1  0  0  0
 19 20  2  0  0  0
 19 37  1  0  0  0
 20 21  1  0  0  0
 21 22  1  0  0  0
 21 34  1  0  0  0
 22 23  1  0  0  0
 23 24  1  0  0  0
 24 25  1  0  0  0
 24 45  1  0  0  0
 25 26  2  0  0  0
 25 27  1  0  0  0
 27 28  1  0  0  0
 27 33  1  0  0  0
 28 29  1  0  0  0
 29 30  1  0  0  0
 30 31  1  0  0  0
 30 32  1  0  0  0
 31 46  1  0  0  0
 32 33  1  0  0  0
 34 35  2  0  0  0
 34 36  1  0  0  0
 36 37  2  0  0  0
 39 40  2  0  0  0
M  END
>  <AUTHOR>
    GENERATED BY OPEN BABEL 2.3.2

>  <CHROM.1>
138.39583669,108.58380047,-37.24949605,-118.15585221,29.34869562,25.09422871
177.10709760,-61.11245511,-163.01488897,152.42118204,110.58542990,175.36343100
-9.68839238,11.31249369,69.41642944,-2.15022283,1.11156675,2.86693750

>  <COMPND>
    UNNAMED

>  <MASTER>
        0    0    0    0    0    0    0    0   73    0   73    0

>  <Name>
ligands/mol5.pdb

>  <RI>
2.58286e+07

>  <Rbt.Current_Directory>
/home/rodrigo/Desktop/Rodrigo/Proyectos/test_OCONDOR/OCONDOR

>  <Rbt.Executable>
rbdock ($Id: //depot/dev/client3/rdock/2013.1/src/exe/rbdock.cxx#4 $)

>  <Rbt.Library>
libRbt.so (2013.1, Build901 2013/11/27)

>  <Rbt.Parameter_File>
dock.prm

>  <Rbt.Receptor>
rdock.prm

>  <SCORE>
-17.8352

>  <SCORE.INTER>
-18.5958

>  <SCORE.INTER.CONST>
1

>  <SCORE.INTER.POLAR>
-2.41848

>  <SCORE.INTER.REPUL>
0.00604464

>  <SCORE.INTER.ROT>
11

>  <SCORE.INTER.VDW>
-26.8032

>  <SCORE.INTER.norm>
-0.464896

>  <SCORE.INTRA>
0.7606

>  <SCORE.INTRA.DIHEDRAL>
2.18167

>  <SCORE.INTRA.DIHEDRAL.0>
8.44371

>  <SCORE.INTRA.POLAR>
0

>  <SCORE.INTRA.POLAR.0>
0

>  <SCORE.INTRA.REPUL>
0

>  <SCORE.INTRA.REPUL.0>
0

>  <SCORE.INTRA.VDW>
-0.330235

>  <SCORE.INTRA.VDW.0>
-2.13059

>  <SCORE.INTRA.norm>
0.019015

>  <SCORE.RESTR>
0

>  <SCORE.RESTR.CAVITY>
0

>  <SCORE.RESTR.norm>
0

>  <SCORE.SYSTEM>
0

>  <SCORE.SYSTEM.CONST>
0

>  <SCORE.SYSTEM.DIHEDRAL>
0

>  <SCORE.SYSTEM.norm>
0

>  <SCORE.heavy>
40

>  <SCORE.norm>
-0.445881

$$$$
ligands/mol5.pdb
  rDOCK(R)          3D
libRbt.so/2013.1/901 2013/11/27
 46 49  0  0  0  0  0  0  0  0999 V2000
  -12.6682   14.1301   73.7302 N   0  0  0  0  0  0
  -13.5895   13.1869   72.6581 S   0  0  0  0  0  0
  -13.1756   11.7943   72.7870 O   0  0  0  0  0  0
  -14.9576   13.5876   72.8030 O   0  0  0  0  0  0
  -13.0299   13.7955   71.0770 C   0  0  0  0  0  0
  -13.1752   15.1383   70.7248 C   0  0  0  0  0  0
  -12.7474   15.5655   69.4633 C   0  0  0  0  0  0
  -12.1650   14.6688   68.5527 C   0  0  0  0  0  0
  -11.7965   15.1248   67.1478 C   0  0  0  0  0  0
  -11.8477   14.0409   66.0860 C   0  0  0  0  0  0
  -12.9817   13.8637   65.2797 C   0  0  0  0  0  0
  -13.0333   12.8445   64.3361 C   0  0  0  0  0  0
  -11.9766   11.9525   64.2200 C   0  0  0  0  0  0
  -10.8720   12.0312   65.0731 C   0  0  0  0  0  0
   -9.8587   11.0316   65.0850 N   0  0  0  0  0  0
   -9.7123   10.1165   66.1177 C   0  0  0  0  0  0
   -9.0739   10.3274   67.1403 O   0  0  0  0  0  0
  -10.3512    8.9103   65.8719 N   0  0  0  0  0  0
  -10.3598    7.8166   66.7151 C   0  0  0  0  0  0
   -9.6995    7.8102   67.8839 C   0  0  0  0  0  0
   -9.6848    6.6026   68.8029 C   0  0  0  0  0  0
   -8.3691    5.8155   68.6578 C   0  0  0  0  0  0
   -7.1791    6.4434   69.3977 C   0  0  0  0  0  0
   -7.3196    6.3629   70.8499 N   0  0  0  0  0  0
   -8.0262    7.2738   71.5978 C   0  0  0  0  0  0
   -8.5748    8.2536   71.0943 O   0  0  0  0  0  0
   -7.9908    7.0278   73.1254 C   0  0  0  0  0  0
   -8.9316    7.9586   73.9098 C   0  0  0  0  0  0
  -10.4149    7.5905   73.7858 C   0  0  0  0  0  0
  -10.7247    6.1070   73.9792 C   0  0  0  0  0  0
  -10.7869    5.8066   75.3690 O   0  0  0  0  0  0
   -9.7185    5.1785   73.2814 C   0  0  0  0  0  0
   -8.2695    5.5798   73.5452 C   0  0  0  0  0  0
  -10.9039    5.7154   68.5215 C   0  0  0  0  0  0
  -11.4562    5.1106   69.4396 O   0  0  0  0  0  0
  -11.2740    5.5442   67.2118 N   0  0  0  0  0  0
  -11.0334    6.5187   66.3960 C   0  0  0  0  0  0
  -10.7913   13.1098   65.9700 C   0  0  0  0  0  0
  -11.9996   13.3284   68.9363 C   0  0  0  0  0  0
  -12.4287   12.8885   70.1935 C   0  0  0  0  0  0
  -12.9941   15.0883   73.8703 H   0  0  0  0  0  0
  -12.4105   13.6701   74.6116 H   0  0  0  0  0  0
   -9.0534   11.1909   64.4960 H   0  0  0  0  0  0
  -10.8595    8.8243   65.0043 H   0  0  0  0  0  0
   -6.9753    5.5158   71.2944 H   0  0  0  0  0  0
  -10.9138    4.8544   75.4855 H   0  0  0  0  0  0
  1  2  1  0  0  0
  1 41  1  0  0  0
  1 42  1  0  0  0
  2  3  2  0  0  0
  2  4  2  0  0  0
  2  5  1  0  0  0
  5  6  2  0  0  0
  5 40  1  0  0  0
  6  7  1  0  0  0
  7  8  2  0  0  0
  8  9  1  0  0  0
  8 39  1  0  0  0
  9 10  1  0  0  0
 10 11  2  0  0  0
 10 38  1  0  0  0
 11 12  1  0  0  0
 12 13  2  0  0  0
 13 14  1  0  0  0
 14 15  1  0  0  0
 14 38  2  0  0  0
 15 16  1  0  0  0
 15 43  1  0  0  0
 16 17  2  0  0  0
 16 18  1  0  0  0
 18 19  1  0  0  0
 18 44  1  0  0  0
 19 20  2  0  0  0
 19 37  1  0  0  0
 20 21  1  0  0  0
 21 22  1  0  0  0
 21 34  1  0  0  0
 22 23  1  0  0  0
 23 24  1  0  0  0
 24 25  1  0  0  0
 24 45  1  0  0  0
 25 26  2  0  0  0
 25 27  1  0  0  0
 27 28  1  0  0  0
 27 33  1  0  0  0
 28 29  1  0  0  0
 29 30  1  0  0  0
 30 31  1  0  0  0
 30 32  1  0  0  0
 31 46  1  0  0  0
 32 33  1  0  0  0
 34 35  2  0  0  0
 34 36  1  0  0  0
 36 37  2  0  0  0
 39 40  2  0  0  0
M  END
>  <AUTHOR>
    GENERATED BY OPEN BABEL 2.3.2

>  <CHROM.1>
-168.00238675,-59.74232980,-150.65866795,95.70889704,-107.38912768,-85.91342172
-1.55462808,78.35876903,68.93911691,-84.28349576,-172.81011162,-175.57580873
-10.90474149,9.94003678,69.64479784,2.49135743,1.11230160,-1.31511350

>  <COMPND>
    UNNAMED

>  <MASTER>
        0    0    0    0    0    0    0    0   73    0   73    0

>  <Name>
ligands/mol5.pdb

>  <RI>
2.58286e+07

>  <Rbt.Current_Directory>
/home/rodrigo/Desktop/Rodrigo/Proyectos/test_OCONDOR/OCONDOR

>  <Rbt.Executable>
rbdock ($Id: //depot/dev/client3/rdock/2013.1/src/exe/rbdock.cxx#4 $)

>  <Rbt.Library>
libRbt.so (2013.1, Build901 2013/11/27)

>  <Rbt.Parameter_File>
dock.prm

>  <Rbt.Receptor>
rdock.prm

>  <SCORE>
-16.6575

>  <SCORE.INTER>
-14.8769

>  <SCORE.INTER.CONST>
1

>  <SCORE.INTER.POLAR>
-0.64529

>  <SCORE.INTER.REPUL>
0

>  <SCORE.INTER.ROT>
11

>  <SCORE.INTER.VDW>
-29.0829

>  <SCORE.INTER.norm>
-0.371922

>  <SCORE.INTRA>
-1.7806

>  <SCORE.INTRA.DIHEDRAL>
-0.395081

>  <SCORE.INTRA.DIHEDRAL.0>
8.44371

>  <SCORE.INTRA.POLAR>
0

>  <SCORE.INTRA.POLAR.0>
0

>  <SCORE.INTRA.REPUL>
0

>  <SCORE.INTRA.REPUL.0>
0

>  <SCORE.INTRA.VDW>
-1.58306

>  <SCORE.INTRA.VDW.0>
-2.13059

>  <SCORE.INTRA.norm>
-0.0445151

>  <SCORE.RESTR>
0

>  <SCORE.RESTR.CAVITY>
0

>  <SCORE.RESTR.norm>
0

>  <SCORE.SYSTEM>
0

>  <SCORE.SYSTEM.CONST>
0

>  <SCORE.SYSTEM.DIHEDRAL>
0

>  <SCORE.SYSTEM.norm>
0

>  <SCORE.heavy>
40

>  <SCORE.norm>
-0.416437

$$$$
ligands/mol5.pdb
  rDOCK(R)          3D
libRbt.so/2013.1/901 2013/11/27
 46 49  0  0  0  0  0  0  0  0999 V2000
   -8.7085   20.1039   65.5829 N   0  0  0  0  0  0
   -7.4846   18.9262   65.6317 S   0  0  0  0  0  0
   -6.8597   18.8468   64.3162 O   0  0  0  0  0  0
   -6.7195   19.1532   66.8218 O   0  0  0  0  0  0
   -8.4325   17.4376   65.8942 C   0  0  0  0  0  0
   -7.8102   16.2281   66.2075 C   0  0  0  0  0  0
   -8.5912   15.0801   66.3773 C   0  0  0  0  0  0
   -9.9889   15.1279   66.2491 C   0  0  0  0  0  0
  -10.8169   13.8535   66.3367 C   0  0  0  0  0  0
  -11.4843   13.6115   67.6787 C   0  0  0  0  0  0
  -11.4469   14.5769   68.6956 C   0  0  0  0  0  0
  -12.0285   14.3310   69.9338 C   0  0  0  0  0  0
  -12.6084   13.0976   70.1951 C   0  0  0  0  0  0
  -12.5772   12.0726   69.2452 C   0  0  0  0  0  0
  -13.0140   10.7524   69.5493 N   0  0  0  0  0  0
  -12.5652   10.0439   70.6547 C   0  0  0  0  0  0
  -12.3294   10.5455   71.7458 O   0  0  0  0  0  0
  -12.3856    8.6925   70.3998 N   0  0  0  0  0  0
  -11.9340    7.7545   71.3074 C   0  0  0  0  0  0
  -11.7041    8.0584   72.5946 C   0  0  0  0  0  0
  -11.1842    7.0383   73.5906 C   0  0  0  0  0  0
   -9.6727    7.2178   73.8253 C   0  0  0  0  0  0
   -9.1620    6.5850   75.1279 C   0  0  0  0  0  0
   -7.7786    6.9524   75.4217 N   0  0  0  0  0  0
   -7.3663    8.2431   75.6507 C   0  0  0  0  0  0
   -8.1383    9.1998   75.5948 O   0  0  0  0  0  0
   -5.8447    8.4083   75.8810 C   0  0  0  0  0  0
   -5.0158    8.2291   74.5974 C   0  0  0  0  0  0
   -5.0985    9.4187   73.6335 C   0  0  0  0  0  0
   -4.9195   10.7872   74.2887 C   0  0  0  0  0  0
   -3.5335   11.0556   74.4692 O   0  0  0  0  0  0
   -5.6639   10.9245   75.6260 C   0  0  0  0  0  0
   -5.4398    9.7283   76.5474 C   0  0  0  0  0  0
  -11.5129    5.6202   73.1077 C   0  0  0  0  0  0
  -11.7880    4.7368   73.9188 O   0  0  0  0  0  0
  -11.3813    5.3609   71.7672 N   0  0  0  0  0  0
  -11.5907    6.3421   70.9508 C   0  0  0  0  0  0
  -12.0584   12.3538   67.9700 C   0  0  0  0  0  0
  -10.5994   16.3596   65.9635 C   0  0  0  0  0  0
   -9.8280   17.5135   65.7863 C   0  0  0  0  0  0
   -8.3915   21.0688   65.4714 H   0  0  0  0  0  0
   -9.5098   19.8817   64.9799 H   0  0  0  0  0  0
  -13.4073   10.2153   68.7892 H   0  0  0  0  0  0
  -12.6093    8.3627   69.4726 H   0  0  0  0  0  0
   -7.1288    6.1874   75.5833 H   0  0  0  0  0  0
   -3.4243   11.9462   74.8315 H   0  0  0  0  0  0
  1  2  1  0  0  0
  1 41  1  0  0  0
  1 42  1  0  0  0
  2  3  2  0  0  0
  2  4  2  0  0  0
  2  5  1  0  0  0
  5  6  2  0  0  0
  5 40  1  0  0  0
  6  7  1  0  0  0
  7  8  2  0  0  0
  8  9  1  0  0  0
  8 39  1  0  0  0
  9 10  1  0  0  0
 10 11  2  0  0  0
 10 38  1  0  0  0
 11 12  1  0  0  0
 12 13  2  0  0  0
 13 14  1  0  0  0
 14 15  1  0  0  0
 14 38  2  0  0  0
 15 16  1  0  0  0
 15 43  1  0  0  0
 16 17  2  0  0  0
 16 18  1  0  0  0
 18 19  1  0  0  0
 18 44  1  0  0  0
 19 20  2  0  0  0
 19 37  1  0  0  0
 20 21  1  0  0  0
 21 22  1  0  0  0
 21 34  1  0  0  0
 22 23  1  0  0  0
 23 24  1  0  0  0
 24 25  1  0  0  0
 24 45  1  0  0  0
 25 26  2  0  0  0
 25 27  1  0  0  0
 27 28  1  0  0  0
 27 33  1  0  0  0
 28 29  1  0  0  0
 29 30  1  0  0  0
 30 31  1  0  0  0
 30 32  1  0  0  0
 31 46  1  0  0  0
 32 33  1  0  0  0
 34 35  2  0  0  0
 34 36  1  0  0  0
 36 37  2  0  0  0
 39 40  2  0  0  0
M  END
>  <AUTHOR>
    GENERATED BY OPEN BABEL 2.3.2

>  <CHROM.1>
-68.04707086,-169.87801583,100.06967355,6.68083920,-51.10148294,36.71831720
4.77989702,160.10920996,-170.95838588,62.33455576,72.43437546,176.37966104
-9.28532270,11.76484256,70.60692627,-1.56644438,0.48253347,2.45075235

>  <COMPND>
    UNNAMED

>  <MASTER>
        0    0    0    0    0    0    0    0   73    0   73    0

>  <Name>
ligands/mol5.pdb

>  <RI>
2.58286e+07

>  <Rbt.Current_Directory>
/home/rodrigo/Desktop/Rodrigo/Proyectos/test_OCONDOR/OCONDOR

>  <Rbt.Executable>
rbdock ($Id: //depot/dev/client3/rdock/2013.1/src/exe/rbdock.cxx#4 $)

>  <Rbt.Library>
libRbt.so (2013.1, Build901 2013/11/27)

>  <Rbt.Parameter_File>
dock.prm

>  <Rbt.Receptor>
rdock.prm

>  <SCORE>
-14.9371

>  <SCORE.INTER>
-14.7552

>  <SCORE.INTER.CONST>
1

>  <SCORE.INTER.POLAR>
-2.4062

>  <SCORE.INTER.REPUL>
0.230385

>  <SCORE.INTER.ROT>
11

>  <SCORE.INTER.VDW>
-24.126

>  <SCORE.INTER.norm>
-0.368879

>  <SCORE.INTRA>
-0.181967

>  <SCORE.INTRA.DIHEDRAL>
0.126441

>  <SCORE.INTRA.DIHEDRAL.0>
8.44371

>  <SCORE.INTRA.POLAR>
0

>  <SCORE.INTRA.POLAR.0>
0

>  <SCORE.INTRA.REPUL>
0

>  <SCORE.INTRA.REPUL.0>
0

>  <SCORE.INTRA.VDW>
-0.245187

>  <SCORE.INTRA.VDW.0>
-2.13059

>  <SCORE.INTRA.norm>
-0.00454916

>  <SCORE.RESTR>
0

>  <SCORE.RESTR.CAVITY>
0

>  <SCORE.RESTR.norm>
0

>  <SCORE.SYSTEM>
0

>  <SCORE.SYSTEM.CONST>
0

>  <SCORE.SYSTEM.DIHEDRAL>
0

>  <SCORE.SYSTEM.norm>
0

>  <SCORE.heavy>
40

>  <SCORE.norm>
-0.373429

$$$$
ligands/mol5.pdb
  rDOCK(R)          3D
libRbt.so/2013.1/901 2013/11/27
 46 49  0  0  0  0  0  0  0  0999 V2000
   -9.0235   20.4749   65.2315 N   0  0  0  0  0  0
   -8.0413   19.4130   66.1232 S   0  0  0  0  0  0
   -7.1998   18.6650   65.1960 O   0  0  0  0  0  0
   -7.4893   20.1568   67.2165 O   0  0  0  0  0  0
   -9.2531   18.2967   66.8078 C   0  0  0  0  0  0
   -9.3186   18.0513   68.1804 C   0  0  0  0  0  0
  -10.2668   17.1469   68.6698 C   0  0  0  0  0  0
  -11.1592   16.4924   67.8051 C   0  0  0  0  0  0
  -12.1175   15.4366   68.3384 C   0  0  0  0  0  0
  -11.7606   14.0050   67.9805 C   0  0  0  0  0  0
  -11.0589   13.7013   66.8046 C   0  0  0  0  0  0
  -10.7697   12.3844   66.4669 C   0  0  0  0  0  0
  -11.2238   11.3469   67.2690 C   0  0  0  0  0  0
  -12.0131   11.6005   68.3944 C   0  0  0  0  0  0
  -12.6276   10.5507   69.1336 N   0  0  0  0  0  0
  -11.9577    9.8153   70.1009 C   0  0  0  0  0  0
  -11.3808   10.3053   71.0627 O   0  0  0  0  0  0
  -11.9850    8.4492   69.8632 N   0  0  0  0  0  0
  -11.3893    7.4826   70.6494 C   0  0  0  0  0  0
  -10.6929    7.7901   71.7551 C   0  0  0  0  0  0
  -10.0152    6.7343   72.6091 C   0  0  0  0  0  0
   -8.5053    6.6713   72.3126 C   0  0  0  0  0  0
   -7.7390    7.9466   72.6926 C   0  0  0  0  0  0
   -8.0186    8.3790   74.0601 N   0  0  0  0  0  0
   -7.2090    8.0864   75.1312 C   0  0  0  0  0  0
   -6.1909    7.4042   75.0190 O   0  0  0  0  0  0
   -7.7306    8.5925   76.4977 C   0  0  0  0  0  0
   -7.0575    7.9008   77.6957 C   0  0  0  0  0  0
   -5.6221    8.3714   77.9586 C   0  0  0  0  0  0
   -5.4327    9.8873   77.9447 C   0  0  0  0  0  0
   -5.8198   10.4312   79.2016 O   0  0  0  0  0  0
   -6.1949   10.5862   76.8080 C   0  0  0  0  0  0
   -7.6409   10.1106   76.6924 C   0  0  0  0  0  0
  -10.6876    5.3732   72.3907 C   0  0  0  0  0  0
  -10.7921    4.5763   73.3223 O   0  0  0  0  0  0
  -11.0599    5.0486   71.1111 N   0  0  0  0  0  0
  -11.3933    6.0212   70.3263 C   0  0  0  0  0  0
  -12.2347   12.9355   68.7727 C   0  0  0  0  0  0
  -11.0983   16.7748   66.4312 C   0  0  0  0  0  0
  -10.1504   17.6736   65.9294 C   0  0  0  0  0  0
  -10.0102   20.4945   65.4964 H   0  0  0  0  0  0
   -8.6371   21.4155   65.0865 H   0  0  0  0  0  0
  -13.4551   10.1330   68.7315 H   0  0  0  0  0  0
  -12.4883    8.1313   69.0483 H   0  0  0  0  0  0
   -8.7878    9.0323   74.1827 H   0  0  0  0  0  0
   -5.2446   10.0772   79.8946 H   0  0  0  0  0  0
  1  2  1  0  0  0
  1 41  1  0  0  0
  1 42  1  0  0  0
  2  3  2  0  0  0
  2  4  2  0  0  0
  2  5  1  0  0  0
  5  6  2  0  0  0
  5 40  1  0  0  0
  6  7  1  0  0  0
  7  8  2  0  0  0
  8  9  1  0  0  0
  8 39  1  0  0  0
  9 10  1  0  0  0
 10 11  2  0  0  0
 10 38  1  0  0  0
 11 12  1  0  0  0
 12 13  2  0  0  0
 13 14  1  0  0  0
 14 15  1  0  0  0
 14 38  2  0  0  0
 15 16  1  0  0  0
 15 43  1  0  0  0
 16 17  2  0  0  0
 16 18  1  0  0  0
 18 19  1  0  0  0
 18 44  1  0  0  0
 19 20  2  0  0  0
 19 37  1  0  0  0
 20 21  1  0  0  0
 21 22  1  0  0  0
 21 34  1  0  0  0
 22 23  1  0  0  0
 23 24  1  0  0  0
 24 25  1  0  0  0
 24 45  1  0  0  0
 25 26  2  0  0  0
 25 27  1  0  0  0
 27 28  1  0  0  0
 27 33  1  0  0  0
 28 29  1  0  0  0
 29 30  1  0  0  0
 30 31  1  0  0  0
 30 32  1  0  0  0
 31 46  1  0  0  0
 32 33  1  0  0  0
 34 35  2  0  0  0
 34 36  1  0  0  0
 36 37  2  0  0  0
 39 40  2  0  0  0
M  END
>  <AUTHOR>
    GENERATED BY OPEN BABEL 2.3.2

>  <CHROM.1>
133.98756700,-126.23522018,-106.39568946,-28.80238318,82.33039927,55.01988214
-0.51302610,64.90837616,50.61083284,97.36533975,162.39626799,62.69285992
-9.41327210,11.79112849,70.81475022,-1.72251682,0.87416824,2.57002154

>  <COMPND>
    UNNAMED

>  <MASTER>
        0    0    0    0    0    0    0    0   73    0   73    0

>  <Name>
ligands/mol5.pdb

>  <RI>
2.58286e+07

>  <Rbt.Current_Directory>
/home/rodrigo/Desktop/Rodrigo/Proyectos/test_OCONDOR/OCONDOR

>  <Rbt.Executable>
rbdock ($Id: //depot/dev/client3/rdock/2013.1/src/exe/rbdock.cxx#4 $)

>  <Rbt.Library>
libRbt.so (2013.1, Build901 2013/11/27)

>  <Rbt.Parameter_File>
dock.prm

>  <Rbt.Receptor>
rdock.prm

>  <SCORE>
-15.7609

>  <SCORE.INTER>
-14.651

>  <SCORE.INTER.CONST>
1

>  <SCORE.INTER.POLAR>
-2.4674

>  <SCORE.INTER.REPUL>
0.00233048

>  <SCORE.INTER.ROT>
11

>  <SCORE.INTER.VDW>
-22.6735

>  <SCORE.INTER.norm>
-0.366274

>  <SCORE.INTRA>
-1.17526

>  <SCORE.INTRA.DIHEDRAL>
-0.383985

>  <SCORE.INTRA.DIHEDRAL.0>
8.44371

>  <SCORE.INTRA.POLAR>
0

>  <SCORE.INTRA.POLAR.0>
0

>  <SCORE.INTRA.REPUL>
0

>  <SCORE.INTRA.REPUL.0>
0

>  <SCORE.INTRA.VDW>
-0.983271

>  <SCORE.INTRA.VDW.0>
-2.13059

>  <SCORE.INTRA.norm>
-0.0293816

>  <SCORE.RESTR>
0.0653648

>  <SCORE.RESTR.CAVITY>
0.0653648

>  <SCORE.RESTR.norm>
0.00163412

>  <SCORE.SYSTEM>
0

>  <SCORE.SYSTEM.CONST>
0

>  <SCORE.SYSTEM.DIHEDRAL>
0

>  <SCORE.SYSTEM.norm>
0

>  <SCORE.heavy>
40

>  <SCORE.norm>
-0.394022

$$$$
ligands/mol5.pdb
  rDOCK(R)          3D
libRbt.so/2013.1/901 2013/11/27
 46 49  0  0  0  0  0  0  0  0999 V2000
  -12.1601   14.5296   74.3361 N   0  0  0  0  0  0
  -13.2019   14.0770   73.0723 S   0  0  0  0  0  0
  -13.3996   12.6329   73.1241 O   0  0  0  0  0  0
  -14.3034   14.9935   73.0767 O   0  0  0  0  0  0
  -12.2098   14.4573   71.6390 C   0  0  0  0  0  0
  -12.3391   13.7301   70.4545 C   0  0  0  0  0  0
  -11.5206   14.0452   69.3648 C   0  0  0  0  0  0
  -10.5813   15.0865   69.4400 C   0  0  0  0  0  0
   -9.6286   15.3528   68.2829 C   0  0  0  0  0  0
   -8.4584   14.3912   68.1794 C   0  0  0  0  0  0
   -7.1342   14.8406   68.2892 C   0  0  0  0  0  0
   -6.0686   13.9582   68.1555 C   0  0  0  0  0  0
   -6.3060   12.6242   67.8558 C   0  0  0  0  0  0
   -7.6049   12.1563   67.6375 C   0  0  0  0  0  0
   -7.8596   10.8374   67.1665 N   0  0  0  0  0  0
   -8.9144   10.0617   67.6259 C   0  0  0  0  0  0
   -9.9926    9.9575   67.0564 O   0  0  0  0  0  0
   -8.6370    9.4183   68.8228 N   0  0  0  0  0  0
   -9.5046    8.5972   69.5160 C   0  0  0  0  0  0
  -10.8009    8.4859   69.1855 C   0  0  0  0  0  0
  -11.7644    7.6046   69.9589 C   0  0  0  0  0  0
  -12.6253    8.4423   70.9226 C   0  0  0  0  0  0
  -11.8626    8.9680   72.1474 C   0  0  0  0  0  0
  -11.6943    7.9478   73.1800 N   0  0  0  0  0  0
  -10.5132    7.7277   73.8468 C   0  0  0  0  0  0
   -9.4891    8.3632   73.5979 O   0  0  0  0  0  0
  -10.5455    6.5550   74.8564 C   0  0  0  0  0  0
  -10.9088    5.2082   74.2076 C   0  0  0  0  0  0
   -9.7754    4.5924   73.3786 C   0  0  0  0  0  0
   -8.4096    4.5904   74.0632 C   0  0  0  0  0  0
   -8.3241    3.4895   74.9611 O   0  0  0  0  0  0
   -8.0962    5.9013   74.8013 C   0  0  0  0  0  0
   -9.2579    6.3775   75.6696 C   0  0  0  0  0  0
  -10.9902    6.5104   70.7043 C   0  0  0  0  0  0
  -11.4789    5.3898   70.8434 O   0  0  0  0  0  0
   -9.8016    6.8631   71.2910 N   0  0  0  0  0  0
   -9.1222    7.8102   70.7303 C   0  0  0  0  0  0
   -8.6804   13.0349   67.8514 C   0  0  0  0  0  0
  -10.4868   15.8264   70.6295 C   0  0  0  0  0  0
  -11.2965   15.5169   71.7279 C   0  0  0  0  0  0
  -12.4005   15.3967   74.8202 H   0  0  0  0  0  0
  -11.9013   13.7764   74.9848 H   0  0  0  0  0  0
   -7.0881   10.3510   66.7319 H   0  0  0  0  0  0
   -7.7198    9.5562   69.2206 H   0  0  0  0  0  0
  -12.5373    7.4734   73.4930 H   0  0  0  0  0  0
   -8.2292    2.6701   74.4551 H   0  0  0  0  0  0
  1  2  1  0  0  0
  1 41  1  0  0  0
  1 42  1  0  0  0
  2  3  2  0  0  0
  2  4  2  0  0  0
  2  5  1  0  0  0
  5  6  2  0  0  0
  5 40  1  0  0  0
  6  7  1  0  0  0
  7  8  2  0  0  0
  8  9  1  0  0  0
  8 39  1  0  0  0
  9 10  1  0  0  0
 10 11  2  0  0  0
 10 38  1  0  0  0
 11 12  1  0  0  0
 12 13  2  0  0  0
 13 14  1  0  0  0
 14 15  1  0  0  0
 14 38  2  0  0  0
 15 16  1  0  0  0
 15 43  1  0  0  0
 16 17  2  0  0  0
 16 18  1  0  0  0
 18 19  1  0  0  0
 18 44  1  0  0  0
 19 20  2  0  0  0
 19 37  1  0  0  0
 20 21  1  0  0  0
 21 22  1  0  0  0
 21 34  1  0  0  0
 22 23  1  0  0  0
 23 24  1  0  0  0
 24 25  1  0  0  0
 24 45  1  0  0  0
 25 26  2  0  0  0
 25 27  1  0  0  0
 27 28  1  0  0  0
 27 33  1  0  0  0
 28 29  1  0  0  0
 29 30  1  0  0  0
 30 31  1  0  0  0
 30 32  1  0  0  0
 31 46  1  0  0  0
 32 33  1  0  0  0
 34 35  2  0  0  0
 34 36  1  0  0  0
 36 37  2  0  0  0
 39 40  2  0  0  0
M  END
>  <AUTHOR>
    GENERATED BY OPEN BABEL 2.3.2

>  <CHROM.1>
-139.86569235,149.68313569,-77.21811580,-118.33294125,141.09739961,96.94107518
-9.73435596,-72.69575137,-79.24056677,135.36960291,58.78149255,73.16591980
-10.28198297,10.31582181,71.19440552,1.64268868,0.88295125,-0.44770363

>  <COMPND>
    UNNAMED

>  <MASTER>
        0    0    0    0    0    0    0    0   73    0   73    0

>  <Name>
ligands/mol5.pdb

>  <RI>
2.58286e+07

>  <Rbt.Current_Directory>
/home/rodrigo/Desktop/Rodrigo/Proyectos/test_OCONDOR/OCONDOR

>  <Rbt.Executable>
rbdock ($Id: //depot/dev/client3/rdock/2013.1/src/exe/rbdock.cxx#4 $)

>  <Rbt.Library>
libRbt.so (2013.1, Build901 2013/11/27)

>  <Rbt.Parameter_File>
dock.prm

>  <Rbt.Receptor>
rdock.prm

>  <SCORE>
-13.5235

>  <SCORE.INTER>
-11.8906

>  <SCORE.INTER.CONST>
1

>  <SCORE.INTER.POLAR>
-1.59302

>  <SCORE.INTER.REPUL>
0.0796664

>  <SCORE.INTER.ROT>
11

>  <SCORE.INTER.VDW>
-23.2726

>  <SCORE.INTER.norm>
-0.297264

>  <SCORE.INTRA>
-1.63296

>  <SCORE.INTRA.DIHEDRAL>
2.86047

>  <SCORE.INTRA.DIHEDRAL.0>
8.44371

>  <SCORE.INTRA.POLAR>
0

>  <SCORE.INTRA.POLAR.0>
0

>  <SCORE.INTRA.REPUL>
0

>  <SCORE.INTRA.REPUL.0>
0

>  <SCORE.INTRA.VDW>
-3.0632

>  <SCORE.INTRA.VDW.0>
-2.13059

>  <SCORE.INTRA.norm>
-0.040824

>  <SCORE.RESTR>
0

>  <SCORE.RESTR.CAVITY>
0

>  <SCORE.RESTR.norm>
0

>  <SCORE.SYSTEM>
0

>  <SCORE.SYSTEM.CONST>
0

>  <SCORE.SYSTEM.DIHEDRAL>
0

>  <SCORE.SYSTEM.norm>
0

>  <SCORE.heavy>
40

>  <SCORE.norm>
-0.338088

$$$$
ligands/mol5.pdb
  rDOCK(R)          3D
libRbt.so/2013.1/901 2013/11/27
 46 49  0  0  0  0  0  0  0  0999 V2000
   -6.7350   19.3789   69.4301 N   0  0  0  0  0  0
   -6.1754   17.8074   69.1061 S   0  0  0  0  0  0
   -4.8800   17.9003   68.4422 O   0  0  0  0  0  0
   -6.3631   17.0324   70.2966 O   0  0  0  0  0  0
   -7.3773   17.2394   67.9161 C   0  0  0  0  0  0
   -7.3004   17.6133   66.5735 C   0  0  0  0  0  0
   -8.2806   17.1668   65.6811 C   0  0  0  0  0  0
   -9.3318   16.3409   66.1117 C   0  0  0  0  0  0
  -10.4460   15.9452   65.1529 C   0  0  0  0  0  0
  -10.7947   14.4676   65.1473 C   0  0  0  0  0  0
  -10.8990   13.7481   63.9478 C   0  0  0  0  0  0
  -11.2556   12.4047   63.9509 C   0  0  0  0  0  0
  -11.5670   11.7725   65.1464 C   0  0  0  0  0  0
  -11.5746   12.4787   66.3527 C   0  0  0  0  0  0
  -12.0507   11.8969   67.5614 N   0  0  0  0  0  0
  -11.2121   11.3154   68.5016 C   0  0  0  0  0  0
  -10.1487   11.7974   68.8685 O   0  0  0  0  0  0
  -11.6884   10.1049   68.9823 N   0  0  0  0  0  0
  -11.0557    9.3015   69.9106 C   0  0  0  0  0  0
  -11.5811    8.1376   70.3245 C   0  0  0  0  0  0
  -10.9027    7.2628   71.3626 C   0  0  0  0  0  0
  -11.5537    7.4438   72.7465 C   0  0  0  0  0  0
  -10.6810    6.9660   73.9161 C   0  0  0  0  0  0
   -9.5545    7.8605   74.1735 N   0  0  0  0  0  0
   -8.7055    7.7260   75.2456 C   0  0  0  0  0  0
   -8.8526    6.8474   76.0947 O   0  0  0  0  0  0
   -7.6187    8.8223   75.3557 C   0  0  0  0  0  0
   -6.8136    8.7465   76.6645 C   0  0  0  0  0  0
   -5.7984    7.5981   76.7036 C   0  0  0  0  0  0
   -4.9368    7.4623   75.4493 C   0  0  0  0  0  0
   -3.8591    8.3903   75.5042 O   0  0  0  0  0  0
   -5.7273    7.6456   74.1444 C   0  0  0  0  0  0
   -6.6385    8.8699   74.1777 C   0  0  0  0  0  0
   -9.4004    7.5688   71.4044 C   0  0  0  0  0  0
   -8.5900    6.6698   71.6258 O   0  0  0  0  0  0
   -9.0180    8.8815   71.2953 N   0  0  0  0  0  0
   -9.7757    9.6632   70.5967 C   0  0  0  0  0  0
  -11.1375   13.8141   66.3522 C   0  0  0  0  0  0
   -9.3755   15.9506   67.4597 C   0  0  0  0  0  0
   -8.4035   16.3954   68.3626 C   0  0  0  0  0  0
   -7.6755   19.4423   69.8244 H   0  0  0  0  0  0
   -6.0664   19.9948   69.9082 H   0  0  0  0  0  0
  -13.0238   11.6259   67.5852 H   0  0  0  0  0  0
  -12.5775    9.7841   68.6286 H   0  0  0  0  0  0
   -9.3309    8.5325   73.4441 H   0  0  0  0  0  0
   -3.2684    8.2399   74.7526 H   0  0  0  0  0  0
  1  2  1  0  0  0
  1 41  1  0  0  0
  1 42  1  0  0  0
  2  3  2  0  0  0
  2  4  2  0  0  0
  2  5  1  0  0  0
  5  6  2  0  0  0
  5 40  1  0  0  0
  6  7  1  0  0  0
  7  8  2  0  0  0
  8  9  1  0  0  0
  8 39  1  0  0  0
  9 10  1  0  0  0
 10 11  2  0  0  0
 10 38  1  0  0  0
 11 12  1  0  0  0
 12 13  2  0  0  0
 13 14  1  0  0  0
 14 15  1  0  0  0
 14 38  2  0  0  0
 15 16  1  0  0  0
 15 43  1  0  0  0
 16 17  2  0  0  0
 16 18  1  0  0  0
 18 19  1  0  0  0
 18 44  1  0  0  0
 19 20  2  0  0  0
 19 37  1  0  0  0
 20 21  1  0  0  0
 21 22  1  0  0  0
 21 34  1  0  0  0
 22 23  1  0  0  0
 23 24  1  0  0  0
 24 25  1  0  0  0
 24 45  1  0  0  0
 25 26  2  0  0  0
 25 27  1  0  0  0
 27 28  1  0  0  0
 27 33  1  0  0  0
 28 29  1  0  0  0
 29 30  1  0  0  0
 30 31  1  0  0  0
 30 32  1  0  0  0
 31 46  1  0  0  0
 32 33  1  0  0  0
 34 35  2  0  0  0
 34 36  1  0  0  0
 36 37  2  0  0  0
 39 40  2  0  0  0
M  END
>  <AUTHOR>
    GENERATED BY OPEN BABEL 2.3.2

>  <CHROM.1>
174.97018469,79.68913351,132.58500190,-130.86221957,96.62905137,43.37590550
-179.81144652,-161.48594805,72.67652421,173.36926731,172.20508261,174.39528768
-8.78205052,11.78917978,70.23372633,-1.65953351,0.75306443,2.47961352

>  <COMPND>
    UNNAMED

>  <MASTER>
        0    0    0    0    0    0    0    0   73    0   73    0

>  <Name>
ligands/mol5.pdb

>  <RI>
2.58286e+07

>  <Rbt.Current_Directory>
/home/rodrigo/Desktop/Rodrigo/Proyectos/test_OCONDOR/OCONDOR

>  <Rbt.Executable>
rbdock ($Id: //depot/dev/client3/rdock/2013.1/src/exe/rbdock.cxx#4 $)

>  <Rbt.Library>
libRbt.so (2013.1, Build901 2013/11/27)

>  <Rbt.Parameter_File>
dock.prm

>  <Rbt.Receptor>
rdock.prm

>  <SCORE>
-13.0532

>  <SCORE.INTER>
-10.4131

>  <SCORE.INTER.CONST>
1

>  <SCORE.INTER.POLAR>
-1.85359

>  <SCORE.INTER.REPUL>
0.108382

>  <SCORE.INTER.ROT>
11

>  <SCORE.INTER.VDW>
-21.0528

>  <SCORE.INTER.norm>
-0.260327

>  <SCORE.INTRA>
-2.64017

>  <SCORE.INTRA.DIHEDRAL>
-0.850898

>  <SCORE.INTRA.DIHEDRAL.0>
8.44371

>  <SCORE.INTRA.POLAR>
-0.555449

>  <SCORE.INTRA.POLAR.0>
0

>  <SCORE.INTRA.REPUL>
0

>  <SCORE.INTRA.REPUL.0>
0

>  <SCORE.INTRA.VDW>
-0.326196

>  <SCORE.INTRA.VDW.0>
-2.13059

>  <SCORE.INTRA.norm>
-0.0660043

>  <SCORE.RESTR>
0

>  <SCORE.RESTR.CAVITY>
0

>  <SCORE.RESTR.norm>
0

>  <SCORE.SYSTEM>
0

>  <SCORE.SYSTEM.CONST>
0

>  <SCORE.SYSTEM.DIHEDRAL>
0

>  <SCORE.SYSTEM.norm>
0

>  <SCORE.heavy>
40

>  <SCORE.norm>
-0.326331

$$$$
ligands/mol5.pdb
  rDOCK(R)          3D
libRbt.so/2013.1/901 2013/11/27
 46 49  0  0  0  0  0  0  0  0999 V2000
   -8.4545    3.5686   76.1591 N   0  0  0  0  0  0
  -10.0617    3.9382   75.7495 S   0  0  0  0  0  0
  -10.5656    2.9031   74.8539 O   0  0  0  0  0  0
  -10.7420    4.2895   76.9607 O   0  0  0  0  0  0
   -9.8537    5.4410   74.8106 C   0  0  0  0  0  0
  -10.9073    5.9886   74.0768 C   0  0  0  0  0  0
  -10.6909    7.1532   73.3328 C   0  0  0  0  0  0
   -9.4365    7.7847   73.3220 C   0  0  0  0  0  0
   -9.1873    8.9927   72.4297 C   0  0  0  0  0  0
   -9.3355    8.7339   70.9411 C   0  0  0  0  0  0
   -8.3530    8.0381   70.2213 C   0  0  0  0  0  0
   -8.4799    7.8389   68.8515 C   0  0  0  0  0  0
   -9.5616    8.3780   68.1695 C   0  0  0  0  0  0
  -10.5096    9.1640   68.8309 C   0  0  0  0  0  0
  -11.5299    9.8631   68.1264 N   0  0  0  0  0  0
  -11.5275   11.2410   67.9636 C   0  0  0  0  0  0
  -12.5375   11.9275   67.8835 O   0  0  0  0  0  0
  -10.2514   11.7776   67.8783 N   0  0  0  0  0  0
   -9.9494   13.1133   67.6996 C   0  0  0  0  0  0
  -10.9016   14.0471   67.5467 C   0  0  0  0  0  0
  -10.5754   15.5125   67.3251 C   0  0  0  0  0  0
  -10.7080   15.8879   65.8374 C   0  0  0  0  0  0
  -10.3689   17.3535   65.5290 C   0  0  0  0  0  0
   -8.9506   17.6499   65.7187 N   0  0  0  0  0  0
   -8.4874   18.7633   66.3774 C   0  0  0  0  0  0
   -9.2443   19.6186   66.8358 O   0  0  0  0  0  0
   -6.9467   18.9075   66.4064 C   0  0  0  0  0  0
   -6.3883   19.6761   65.1963 C   0  0  0  0  0  0
   -6.6293   21.1891   65.2564 C   0  0  0  0  0  0
   -6.2938   21.8380   66.5982 C   0  0  0  0  0  0
   -4.8933   22.0780   66.6787 O   0  0  0  0  0  0
   -6.7598   21.0125   67.8077 C   0  0  0  0  0  0
   -6.3887   19.5366   67.6884 C   0  0  0  0  0  0
   -9.1718   15.8233   67.8597 C   0  0  0  0  0  0
   -8.9308   16.9157   68.3720 O   0  0  0  0  0  0
   -8.1910   14.8886   67.6455 N   0  0  0  0  0  0
   -8.5563   13.6491   67.5884 C   0  0  0  0  0  0
  -10.4177    9.2951   70.2269 C   0  0  0  0  0  0
   -8.3973    7.2362   74.0903 C   0  0  0  0  0  0
   -8.6005    6.0685   74.8342 C   0  0  0  0  0  0
   -8.3240    2.7345   76.7347 H   0  0  0  0  0  0
   -7.7796    3.6222   75.3866 H   0  0  0  0  0  0
  -12.4164    9.3903   68.0189 H   0  0  0  0  0  0
   -9.4744   11.1387   67.9593 H   0  0  0  0  0  0
   -8.2936   16.9212   65.4523 H   0  0  0  0  0  0
   -4.6976   22.5620   67.4935 H   0  0  0  0  0  0
  1  2  1  0  0  0
  1 41  1  0  0  0
  1 42  1  0  0  0
  2  3  2  0  0  0
  2  4  2  0  0  0
  2  5  1  0  0  0
  5  6  2  0  0  0
  5 40  1  0  0  0
  6  7  1  0  0  0
  7  8  2  0  0  0
  8  9  1  0  0  0
  8 39  1  0  0  0
  9 10  1  0  0  0
 10 11  2  0  0  0
 10 38  1  0  0  0
 11 12  1  0  0  0
 12 13  2  0  0  0
 13 14  1  0  0  0
 14 15  1  0  0  0
 14 38  2  0  0  0
 15 16  1  0  0  0
 15 43  1  0  0  0
 16 17  2  0  0  0
 16 18  1  0  0  0
 18 19  1  0  0  0
 18 44  1  0  0  0
 19 20  2  0  0  0
 19 37  1  0  0  0
 20 21  1  0  0  0
 21 22  1  0  0  0
 21 34  1  0  0  0
 22 23  1  0  0  0
 23 24  1  0  0  0
 24 25  1  0  0  0
 24 45  1  0  0  0
 25 26  2  0  0  0
 25 27  1  0  0  0
 27 28  1  0  0  0
 27 33  1  0  0  0
 28 29  1  0  0  0
 29 30  1  0  0  0
 30 31  1  0  0  0
 30 32  1  0  0  0
 31 46  1  0  0  0
 32 33  1  0  0  0
 34 35  2  0  0  0
 34 36  1  0  0  0
 36 37  2  0  0  0
 39 40  2  0  0  0
M  END
>  <AUTHOR>
    GENERATED BY OPEN BABEL 2.3.2

>  <CHROM.1>
-67.37022405,169.05019656,-61.60426873,-75.17595020,-107.49824215,-148.78799317
-2.07801151,-178.98264243,68.06876180,-134.56795085,88.96864994,174.81823398
-9.20431541,12.21848382,69.69715413,-1.76897117,-0.82625716,-0.66030804

>  <COMPND>
    UNNAMED

>  <MASTER>
        0    0    0    0    0    0    0    0   73    0   73    0

>  <Name>
ligands/mol5.pdb

>  <RI>
2.58286e+07

>  <Rbt.Current_Directory>
/home/rodrigo/Desktop/Rodrigo/Proyectos/test_OCONDOR/OCONDOR

>  <Rbt.Executable>
rbdock ($Id: //depot/dev/client3/rdock/2013.1/src/exe/rbdock.cxx#4 $)

>  <Rbt.Library>
libRbt.so (2013.1, Build901 2013/11/27)

>  <Rbt.Parameter_File>
dock.prm

>  <Rbt.Receptor>
rdock.prm

>  <SCORE>
-11.3043

>  <SCORE.INTER>
-9.50314

>  <SCORE.INTER.CONST>
1

>  <SCORE.INTER.POLAR>
-1.69177

>  <SCORE.INTER.REPUL>
0.0107901

>  <SCORE.INTER.ROT>
11

>  <SCORE.INTER.VDW>
-20.2051

>  <SCORE.INTER.norm>
-0.237579

>  <SCORE.INTRA>
-1.80113

>  <SCORE.INTRA.DIHEDRAL>
-0.180462

>  <SCORE.INTRA.DIHEDRAL.0>
8.44371

>  <SCORE.INTRA.POLAR>
0

>  <SCORE.INTRA.POLAR.0>
0

>  <SCORE.INTRA.REPUL>
0

>  <SCORE.INTRA.REPUL.0>
0

>  <SCORE.INTRA.VDW>
-1.7109

>  <SCORE.INTRA.VDW.0>
-2.13059

>  <SCORE.INTRA.norm>
-0.0450283

>  <SCORE.RESTR>
0

>  <SCORE.RESTR.CAVITY>
0

>  <SCORE.RESTR.norm>
0

>  <SCORE.SYSTEM>
0

>  <SCORE.SYSTEM.CONST>
0

>  <SCORE.SYSTEM.DIHEDRAL>
0

>  <SCORE.SYSTEM.norm>
0

>  <SCORE.heavy>
40

>  <SCORE.norm>
-0.282607

$$$$
ligands/mol5.pdb
  rDOCK(R)          3D
libRbt.so/2013.1/901 2013/11/27
 46 49  0  0  0  0  0  0  0  0999 V2000
   -6.7661   21.4726   67.3069 N   0  0  0  0  0  0
   -6.6714   20.2837   66.0966 S   0  0  0  0  0  0
   -7.6963   20.5541   65.0947 O   0  0  0  0  0  0
   -5.2895   20.1379   65.7471 O   0  0  0  0  0  0
   -7.1410   18.8180   66.9993 C   0  0  0  0  0  0
   -7.8605   17.7899   66.3879 C   0  0  0  0  0  0
   -8.2315   16.6716   67.1418 C   0  0  0  0  0  0
   -7.8822   16.5623   68.4977 C   0  0  0  0  0  0
   -8.3780   15.3888   69.3312 C   0  0  0  0  0  0
   -9.8878   15.2552   69.4191 C   0  0  0  0  0  0
  -10.5935   15.6945   70.5489 C   0  0  0  0  0  0
  -11.9714   15.5335   70.6358 C   0  0  0  0  0  0
  -12.6591   14.8827   69.6213 C   0  0  0  0  0  0
  -11.9809   14.3396   68.5263 C   0  0  0  0  0  0
  -12.6400   13.5260   67.5621 N   0  0  0  0  0  0
  -12.2280   12.2378   67.2521 C   0  0  0  0  0  0
  -12.1133   11.8061   66.1127 O   0  0  0  0  0  0
  -11.9723   11.4626   68.3734 N   0  0  0  0  0  0
  -11.5648   10.1431   68.3648 C   0  0  0  0  0  0
  -11.3785    9.4453   69.4964 C   0  0  0  0  0  0
  -10.9069    8.0029   69.4939 C   0  0  0  0  0  0
   -9.4031    7.9140   69.8138 C   0  0  0  0  0  0
   -8.8788    6.4786   69.9642 C   0  0  0  0  0  0
   -9.5562    5.7461   71.0318 N   0  0  0  0  0  0
   -8.9279    5.3119   72.1742 C   0  0  0  0  0  0
   -7.7253    5.4853   72.3697 O   0  0  0  0  0  0
   -9.8246    4.5025   73.1417 C   0  0  0  0  0  0
   -9.0381    3.8484   74.2908 C   0  0  0  0  0  0
   -8.5884    4.8341   75.3757 C   0  0  0  0  0  0
   -9.6718    5.8006   75.8514 C   0  0  0  0  0  0
  -10.5032    5.1560   76.8099 O   0  0  0  0  0  0
  -10.5255    6.3698   74.7074 C   0  0  0  0  0  0
  -10.9975    5.2915   73.7355 C   0  0  0  0  0  0
  -11.2340    7.3472   68.1465 C   0  0  0  0  0  0
  -11.5485    6.1588   68.0950 O   0  0  0  0  0  0
  -11.0566    8.1020   67.0150 N   0  0  0  0  0  0
  -11.2249    9.3799   67.1230 C   0  0  0  0  0  0
  -10.6008   14.5746   68.4068 C   0  0  0  0  0  0
   -7.1324   17.5925   69.0874 C   0  0  0  0  0  0
   -6.7603   18.7185   68.3446 C   0  0  0  0  0  0
   -6.8209   22.4381   66.9769 H   0  0  0  0  0  0
   -7.4321   21.2782   68.0644 H   0  0  0  0  0  0
  -13.2123   14.0012   66.8783 H   0  0  0  0  0  0
  -12.0878   11.9009   69.2751 H   0  0  0  0  0  0
  -10.5681    5.6741   70.9635 H   0  0  0  0  0  0
   -9.9745    4.9198   77.5852 H   0  0  0  0  0  0
  1  2  1  0  0  0
  1 41  1  0  0  0
  1 42  1  0  0  0
  2  3  2  0  0  0
  2  4  2  0  0  0
  2  5  1  0  0  0
  5  6  2  0  0  0
  5 40  1  0  0  0
  6  7  1  0  0  0
  7  8  2  0  0  0
  8  9  1  0  0  0
  8 39  1  0  0  0
  9 10  1  0  0  0
 10 11  2  0  0  0
 10 38  1  0  0  0
 11 12  1  0  0  0
 12 13  2  0  0  0
 13 14  1  0  0  0
 14 15  1  0  0  0
 14 38  2  0  0  0
 15 16  1  0  0  0
 15 43  1  0  0  0
 16 17  2  0  0  0
 16 18  1  0  0  0
 18 19  1  0  0  0
 18 44  1  0  0  0
 19 20  2  0  0  0
 19 37  1  0  0  0
 20 21  1  0  0  0
 21 22  1  0  0  0
 21 34  1  0  0  0
 22 23  1  0  0  0
 23 24  1  0  0  0
 24 25  1  0  0  0
 24 45  1  0  0  0
 25 26  2  0  0  0
 25 27  1  0  0  0
 27 28  1  0  0  0
 27 33  1  0  0  0
 28 29  1  0  0  0
 29 30  1  0  0  0
 30 31  1  0  0  0
 30 32  1  0  0  0
 31 46  1  0  0  0
 32 33  1  0  0  0
 34 35  2  0  0  0
 34 36  1  0  0  0
 36 37  2  0  0  0
 39 40  2  0  0  0
M  END
>  <AUTHOR>
    GENERATED BY OPEN BABEL 2.3.2

>  <CHROM.1>
-47.74701457,146.07181367,-59.22149561,-100.68211545,-123.40909589,-134.08572630
-177.79649460,174.37563963,-59.54973206,-114.69279752,170.87959946,62.94562560
-9.60411443,11.95052961,69.49403479,-1.32472696,0.88945610,2.53794820

>  <COMPND>
    UNNAMED

>  <MASTER>
        0    0    0    0    0    0    0    0   73    0   73    0

>  <Name>
ligands/mol5.pdb

>  <RI>
2.58286e+07

>  <Rbt.Current_Directory>
/home/rodrigo/Desktop/Rodrigo/Proyectos/test_OCONDOR/OCONDOR

>  <Rbt.Executable>
rbdock ($Id: //depot/dev/client3/rdock/2013.1/src/exe/rbdock.cxx#4 $)

>  <Rbt.Library>
libRbt.so (2013.1, Build901 2013/11/27)

>  <Rbt.Parameter_File>
dock.prm

>  <Rbt.Receptor>
rdock.prm

>  <SCORE>
-11.6163

>  <SCORE.INTER>
-8.85246

>  <SCORE.INTER.CONST>
1

>  <SCORE.INTER.POLAR>
-0.922075

>  <SCORE.INTER.REPUL>
0.0580877

>  <SCORE.INTER.ROT>
11

>  <SCORE.INTER.VDW>
-22.4078

>  <SCORE.INTER.norm>
-0.221312

>  <SCORE.INTRA>
-2.76384

>  <SCORE.INTRA.DIHEDRAL>
-1.61128

>  <SCORE.INTRA.DIHEDRAL.0>
8.44371

>  <SCORE.INTRA.POLAR>
0

>  <SCORE.INTRA.POLAR.0>
0

>  <SCORE.INTRA.REPUL>
0

>  <SCORE.INTRA.REPUL.0>
0

>  <SCORE.INTRA.VDW>
-1.9582

>  <SCORE.INTRA.VDW.0>
-2.13059

>  <SCORE.INTRA.norm>
-0.069096

>  <SCORE.RESTR>
0

>  <SCORE.RESTR.CAVITY>
0

>  <SCORE.RESTR.norm>
0

>  <SCORE.SYSTEM>
0

>  <SCORE.SYSTEM.CONST>
0

>  <SCORE.SYSTEM.DIHEDRAL>
0

>  <SCORE.SYSTEM.norm>
0

>  <SCORE.heavy>
40

>  <SCORE.norm>
-0.290408

$$$$
ligands/mol5.pdb
  rDOCK(R)          3D
libRbt.so/2013.1/901 2013/11/27
 46 49  0  0  0  0  0  0  0  0999 V2000
   -7.0397   21.4273   67.0514 N   0  0  0  0  0  0
   -7.0170   20.2217   65.8542 S   0  0  0  0  0  0
   -7.9186   20.6153   64.7775 O   0  0  0  0  0  0
   -5.6453   19.8869   65.6099 O   0  0  0  0  0  0
   -7.7460   18.8438   66.7221 C   0  0  0  0  0  0
   -9.1260   18.6339   66.7192 C   0  0  0  0  0  0
   -9.6562   17.5565   67.4367 C   0  0  0  0  0  0
   -8.8228   16.6784   68.1485 C   0  0  0  0  0  0
   -9.4197   15.5711   69.0059 C   0  0  0  0  0  0
   -9.6536   14.2554   68.2854 C   0  0  0  0  0  0
   -8.8737   13.8807   67.1814 C   0  0  0  0  0  0
   -9.1202   12.6915   66.5052 C   0  0  0  0  0  0
  -10.1830   11.8846   66.8859 C   0  0  0  0  0  0
  -11.0465   12.2707   67.9150 C   0  0  0  0  0  0
  -12.2353   11.5457   68.2105 N   0  0  0  0  0  0
  -12.2752   10.4984   69.1200 C   0  0  0  0  0  0
  -13.1468   10.3536   69.9667 O   0  0  0  0  0  0
  -11.2057    9.6247   68.9924 N   0  0  0  0  0  0
  -10.9811    8.5071   69.7721 C   0  0  0  0  0  0
  -11.8288    8.1305   70.7424 C   0  0  0  0  0  0
  -11.5746    6.9178   71.6187 C   0  0  0  0  0  0
  -11.0191    7.3372   72.9925 C   0  0  0  0  0  0
  -10.7095    6.1599   73.9285 C   0  0  0  0  0  0
  -10.2543    6.5991   75.2457 N   0  0  0  0  0  0
  -10.2208    5.7826   76.3505 C   0  0  0  0  0  0
  -10.6052    4.6141   76.3166 O   0  0  0  0  0  0
   -9.7612    6.4745   77.6565 C   0  0  0  0  0  0
   -9.9644    5.6018   78.9071 C   0  0  0  0  0  0
   -8.9497    4.4599   79.0391 C   0  0  0  0  0  0
   -7.4951    4.8662   78.8092 C   0  0  0  0  0  0
   -6.9655    5.4472   79.9956 O   0  0  0  0  0  0
   -7.3105    5.8247   77.6223 C   0  0  0  0  0  0
   -8.3126    6.9762   77.6372 C   0  0  0  0  0  0
  -10.6293    5.9442   70.9042 C   0  0  0  0  0  0
  -10.7635    4.7298   71.0497 O   0  0  0  0  0  0
   -9.5822    6.4805   70.1989 N   0  0  0  0  0  0
   -9.7591    7.6486   69.6723 C   0  0  0  0  0  0
  -10.7452   13.4333   68.6444 C   0  0  0  0  0  0
   -7.4349   16.8878   68.1149 C   0  0  0  0  0  0
   -6.8936   17.9654   67.4050 C   0  0  0  0  0  0
   -7.2904   22.3650   66.7320 H   0  0  0  0  0  0
   -7.5131   21.1708   67.9260 H   0  0  0  0  0  0
  -12.9772   11.5867   67.5258 H   0  0  0  0  0  0
  -10.5352    9.8173   68.2632 H   0  0  0  0  0  0
   -9.8285    7.5209   75.2963 H   0  0  0  0  0  0
   -6.9720    4.7890   80.7050 H   0  0  0  0  0  0
  1  2  1  0  0  0
  1 41  1  0  0  0
  1 42  1  0  0  0
  2  3  2  0  0  0
  2  4  2  0  0  0
  2  5  1  0  0  0
  5  6  2  0  0  0
  5 40  1  0  0  0
  6  7  1  0  0  0
  7  8  2  0  0  0
  8  9  1  0  0  0
  8 39  1  0  0  0
  9 10  1  0  0  0
 10 11  2  0  0  0
 10 38  1  0  0  0
 11 12  1  0  0  0
 12 13  2  0  0  0
 13 14  1  0  0  0
 14 15  1  0  0  0
 14 38  2  0  0  0
 15 16  1  0  0  0
 15 43  1  0  0  0
 16 17  2  0  0  0
 16 18  1  0  0  0
 18 19  1  0  0  0
 18 44  1  0  0  0
 19 20  2  0  0  0
 19 37  1  0  0  0
 20 21  1  0  0  0
 21 22  1  0  0  0
 21 34  1  0  0  0
 22 23  1  0  0  0
 23 24  1  0  0  0
 24 25  1  0  0  0
 24 45  1  0  0  0
 25 26  2  0  0  0
 25 27  1  0  0  0
 27 28  1  0  0  0
 27 33  1  0  0  0
 28 29  1  0  0  0
 29 30  1  0  0  0
 30 31  1  0  0  0
 30 32  1  0  0  0
 31 46  1  0  0  0
 32 33  1  0  0  0
 34 35  2  0  0  0
 34 36  1  0  0  0
 36 37  2  0  0  0
 39 40  2  0  0  0
M  END
>  <AUTHOR>
    GENERATED BY OPEN BABEL 2.3.2

>  <CHROM.1>
-25.66225891,89.40246112,89.63151319,27.45738338,90.34391339,135.22954650
1.74581466,-178.85405865,-176.87378632,163.80991695,170.18776488,62.55779141
-9.44039120,11.34965717,70.83564373,-1.40858895,0.93732374,2.36264637

>  <COMPND>
    UNNAMED

>  <MASTER>
        0    0    0    0    0    0    0    0   73    0   73    0

>  <Name>
ligands/mol5.pdb

>  <RI>
2.58286e+07

>  <Rbt.Current_Directory>
/home/rodrigo/Desktop/Rodrigo/Proyectos/test_OCONDOR/OCONDOR

>  <Rbt.Executable>
rbdock ($Id: //depot/dev/client3/rdock/2013.1/src/exe/rbdock.cxx#4 $)

>  <Rbt.Library>
libRbt.so (2013.1, Build901 2013/11/27)

>  <Rbt.Parameter_File>
dock.prm

>  <Rbt.Receptor>
rdock.prm

>  <SCORE>
-9.51499

>  <SCORE.INTER>
-8.63392

>  <SCORE.INTER.CONST>
1

>  <SCORE.INTER.POLAR>
-1.7636

>  <SCORE.INTER.REPUL>
0

>  <SCORE.INTER.ROT>
11

>  <SCORE.INTER.VDW>
-19.0377

>  <SCORE.INTER.norm>
-0.215848

>  <SCORE.INTRA>
-0.881069

>  <SCORE.INTRA.DIHEDRAL>
-0.917286

>  <SCORE.INTRA.DIHEDRAL.0>
8.44371

>  <SCORE.INTRA.POLAR>
0

>  <SCORE.INTRA.POLAR.0>
0

>  <SCORE.INTRA.REPUL>
0

>  <SCORE.INTRA.REPUL.0>
0

>  <SCORE.INTRA.VDW>
-0.422426

>  <SCORE.INTRA.VDW.0>
-2.13059

>  <SCORE.INTRA.norm>
-0.0220267

>  <SCORE.RESTR>
0

>  <SCORE.RESTR.CAVITY>
0

>  <SCORE.RESTR.norm>
0

>  <SCORE.SYSTEM>
0

>  <SCORE.SYSTEM.CONST>
0

>  <SCORE.SYSTEM.DIHEDRAL>
0

>  <SCORE.SYSTEM.norm>
0

>  <SCORE.heavy>
40

>  <SCORE.norm>
-0.237875

$$$$
ligands/mol5.pdb
  rDOCK(R)          3D
libRbt.so/2013.1/901 2013/11/27
 46 49  0  0  0  0  0  0  0  0999 V2000
   -8.1195   11.1362   76.9472 N   0  0  0  0  0  0
   -6.6304   10.3733   76.6507 S   0  0  0  0  0  0
   -6.0236   10.9760   75.4693 O   0  0  0  0  0  0
   -5.9356   10.2905   77.9012 O   0  0  0  0  0  0
   -7.1541    8.7199   76.2319 C   0  0  0  0  0  0
   -7.8436    7.9242   77.1484 C   0  0  0  0  0  0
   -8.2101    6.6237   76.7864 C   0  0  0  0  0  0
   -7.9060    6.1117   75.5145 C   0  0  0  0  0  0
   -8.2211    4.6628   75.1694 C   0  0  0  0  0  0
   -9.5740    4.4366   74.5187 C   0  0  0  0  0  0
  -10.2619    3.2238   74.6710 C   0  0  0  0  0  0
  -11.4825    3.0125   74.0404 C   0  0  0  0  0  0
  -12.0092    3.9869   73.2044 C   0  0  0  0  0  0
  -11.3075    5.1676   72.9448 C   0  0  0  0  0  0
  -11.7460    6.1028   71.9654 N   0  0  0  0  0  0
  -10.8761    6.7702   71.1150 C   0  0  0  0  0  0
   -9.8194    7.2764   71.4685 O   0  0  0  0  0  0
  -11.3316    6.8299   69.8064 N   0  0  0  0  0  0
  -10.6813    7.4441   68.7542 C   0  0  0  0  0  0
   -9.5038    8.0698   68.9092 C   0  0  0  0  0  0
   -8.7967    8.7678   67.7621 C   0  0  0  0  0  0
   -9.0162   10.2909   67.8244 C   0  0  0  0  0  0
   -8.0662   11.0215   68.7845 C   0  0  0  0  0  0
   -8.3329   12.4568   68.8485 N   0  0  0  0  0  0
   -8.1469   13.3133   67.7902 C   0  0  0  0  0  0
   -7.7079   12.9326   66.7054 O   0  0  0  0  0  0
   -8.4338   14.8022   68.1006 C   0  0  0  0  0  0
   -7.9921   15.7510   66.9730 C   0  0  0  0  0  0
   -8.9115   15.7280   65.7461 C   0  0  0  0  0  0
  -10.4038   15.8107   66.0628 C   0  0  0  0  0  0
  -10.7724   17.1666   66.2887 O   0  0  0  0  0  0
  -10.8217   14.9420   67.2595 C   0  0  0  0  0  0
   -9.8924   15.1098   68.4589 C   0  0  0  0  0  0
   -9.2698    8.1867   66.4240 C   0  0  0  0  0  0
   -8.4871    8.0860   65.4799 O   0  0  0  0  0  0
  -10.6036    7.8931   66.2969 N   0  0  0  0  0  0
  -11.2371    7.5401   67.3679 C   0  0  0  0  0  0
  -10.1137    5.4078   73.6460 C   0  0  0  0  0  0
   -7.2388    6.9373   74.5956 C   0  0  0  0  0  0
   -6.8624    8.2380   74.9484 C   0  0  0  0  0  0
   -8.2993   11.9837   76.4055 H   0  0  0  0  0  0
   -8.9348   10.5124   76.9823 H   0  0  0  0  0  0
  -12.6580    6.5151   72.1040 H   0  0  0  0  0  0
  -12.2121    6.3811   69.6021 H   0  0  0  0  0  0
   -8.7963   12.7968   69.6871 H   0  0  0  0  0  0
  -10.2681   17.5151   67.0374 H   0  0  0  0  0  0
  1  2  1  0  0  0
  1 41  1  0  0  0
  1 42  1  0  0  0
  2  3  2  0  0  0
  2  4  2  0  0  0
  2  5  1  0  0  0
  5  6  2  0  0  0
  5 40  1  0  0  0
  6  7  1  0  0  0
  7  8  2  0  0  0
  8  9  1  0  0  0
  8 39  1  0  0  0
  9 10  1  0  0  0
 10 11  2  0  0  0
 10 38  1  0  0  0
 11 12  1  0  0  0
 12 13  2  0  0  0
 13 14  1  0  0  0
 14 15  1  0  0  0
 14 38  2  0  0  0
 15 16  1  0  0  0
 15 43  1  0  0  0
 16 17  2  0  0  0
 16 18  1  0  0  0
 18 19  1  0  0  0
 18 44  1  0  0  0
 19 20  2  0  0  0
 19 37  1  0  0  0
 20 21  1  0  0  0
 21 22  1  0  0  0
 21 34  1  0  0  0
 22 23  1  0  0  0
 23 24  1  0  0  0
 24 25  1  0  0  0
 24 45  1  0  0  0
 25 26  2  0  0  0
 25 27  1  0  0  0
 27 28  1  0  0  0
 27 33  1  0  0  0
 28 29  1  0  0  0
 29 30  1  0  0  0
 30 31  1  0  0  0
 30 32  1  0  0  0
 31 46  1  0  0  0
 32 33  1  0  0  0
 34 35  2  0  0  0
 34 36  1  0  0  0
 36 37  2  0  0  0
 39 40  2  0  0  0
M  END
>  <AUTHOR>
    GENERATED BY OPEN BABEL 2.3.2

>  <CHROM.1>
-10.87366842,-61.84467293,92.54432473,-151.42908960,-140.20820519,-43.85494664
-0.30002487,82.49059850,-178.16350150,-66.02610564,170.35527540,-60.24665922
-9.04101500,9.41559471,71.24963257,-1.43907233,-1.12868762,-0.74805233

>  <COMPND>
    UNNAMED

>  <MASTER>
        0    0    0    0    0    0    0    0   73    0   73    0

>  <Name>
ligands/mol5.pdb

>  <RI>
2.58286e+07

>  <Rbt.Current_Directory>
/home/rodrigo/Desktop/Rodrigo/Proyectos/test_OCONDOR/OCONDOR

>  <Rbt.Executable>
rbdock ($Id: //depot/dev/client3/rdock/2013.1/src/exe/rbdock.cxx#4 $)

>  <Rbt.Library>
libRbt.so (2013.1, Build901 2013/11/27)

>  <Rbt.Parameter_File>
dock.prm

>  <Rbt.Receptor>
rdock.prm

>  <SCORE>
-8.3606

>  <SCORE.INTER>
-8.30607

>  <SCORE.INTER.CONST>
1

>  <SCORE.INTER.POLAR>
-1.50646

>  <SCORE.INTER.REPUL>
0

>  <SCORE.INTER.ROT>
11

>  <SCORE.INTER.VDW>
-19.5841

>  <SCORE.INTER.norm>
-0.207652

>  <SCORE.INTRA>
-0.0545339

>  <SCORE.INTRA.DIHEDRAL>
0.846726

>  <SCORE.INTRA.DIHEDRAL.0>
8.44371

>  <SCORE.INTRA.POLAR>
0

>  <SCORE.INTRA.POLAR.0>
0

>  <SCORE.INTRA.REPUL>
0

>  <SCORE.INTRA.REPUL.0>
0

>  <SCORE.INTRA.VDW>
-0.477897

>  <SCORE.INTRA.VDW.0>
-2.13059

>  <SCORE.INTRA.norm>
-0.00136335

>  <SCORE.RESTR>
0

>  <SCORE.RESTR.CAVITY>
0

>  <SCORE.RESTR.norm>
0

>  <SCORE.SYSTEM>
0

>  <SCORE.SYSTEM.CONST>
0

>  <SCORE.SYSTEM.DIHEDRAL>
0

>  <SCORE.SYSTEM.norm>
0

>  <SCORE.heavy>
40

>  <SCORE.norm>
-0.209015

$$$$
