ligands/mol9.pdb
  rDOCK(R)          3D
libRbt.so/2013.1/901 2013/11/27
 46 49  0  0  0  0  0  0  0  0999 V2000
   -5.1667   18.6395   67.1827 N   0  0  0  0  0  0
   -4.9656   17.0719   66.6005 S   0  0  0  0  0  0
   -4.3660   17.1779   65.2941 O   0  0  0  0  0  0
   -4.3662   16.2883   67.6625 O   0  0  0  0  0  0
   -6.6539   16.5602   66.4148 C   0  0  0  0  0  0
   -7.5951   17.4027   65.8231 C   0  0  0  0  0  0
   -8.9190   16.9635   65.6693 C   0  0  0  0  0  0
   -9.3232   15.6952   66.1341 C   0  0  0  0  0  0
  -10.7641   15.2115   65.9746 C   0  0  0  0  0  0
  -11.0256   14.2673   64.8053 C   0  0  0  0  0  0
  -12.3127   14.1120   64.2661 C   0  0  0  0  0  0
  -12.5923   13.1202   63.3237 C   0  0  0  0  0  0
  -11.5625   12.3331   62.8173 C   0  0  0  0  0  0
  -10.2484   12.5872   63.2117 C   0  0  0  0  0  0
   -9.1615   11.9456   62.5876 N   0  0  0  0  0  0
   -8.5183   10.8551   63.1638 C   0  0  0  0  0  0
   -7.3040   10.7842   63.3512 O   0  0  0  0  0  0
   -9.4453    9.6748   63.5015 C   0  0  0  0  0  0
   -8.5706    8.1455   63.0058 S   0  0  0  0  0  0
   -9.9481    9.7212   64.9328 C   0  0  0  0  0  0
  -10.8132   10.6894   65.4626 C   0  0  0  0  0  0
  -11.2004   10.6447   66.8101 C   0  0  0  0  0  0
  -12.0413   11.7407   67.4045 C   0  0  0  0  0  0
  -12.1748   11.7135   68.9261 C   0  0  0  0  0  0
  -12.6370   10.4087   69.3648 N   0  0  0  0  0  0
  -12.4187    9.9380   70.6393 C   0  0  0  0  0  0
  -11.8272   10.5905   71.4924 O   0  0  0  0  0  0
  -13.0185    8.5478   70.8845 C   0  0  0  0  0  0
  -12.1903    7.4310   70.2326 C   0  0  0  0  0  0
  -10.8537    7.2152   70.9443 C   0  0  0  0  0  0
  -11.0270    6.9608   72.4401 C   0  0  0  0  0  0
  -11.6158    5.6745   72.6134 O   0  0  0  0  0  0
  -11.9068    8.0082   73.1200 C   0  0  0  0  0  0
  -13.2220    8.2538   72.3750 C   0  0  0  0  0  0
  -10.7064    9.5996   67.5809 C   0  0  0  0  0  0
   -9.8603    8.6541   67.1130 N   0  0  0  0  0  0
   -9.4784    8.7549   65.8235 C   0  0  0  0  0  0
   -9.9816   13.5410   64.2053 C   0  0  0  0  0  0
   -8.3663   14.9050   66.7921 C   0  0  0  0  0  0
   -7.0342   15.3151   66.9029 C   0  0  0  0  0  0
   -5.5448   19.2364   66.4464 H   0  0  0  0  0  0
   -5.6588   18.7177   68.0761 H   0  0  0  0  0  0
   -8.5849   12.5198   61.9835 H   0  0  0  0  0  0
   -8.2548    8.5734   61.7745 H   0  0  0  0  0  0
  -13.1695    9.8356   68.7231 H   0  0  0  0  0  0
  -11.6443    5.5018   73.5716 H   0  0  0  0  0  0
  1  2  1  0  0  0
  1 41  1  0  0  0
  1 42  1  0  0  0
  2  3  2  0  0  0
  2  4  2  0  0  0
  2  5  1  0  0  0
  5  6  2  0  0  0
  5 40  1  0  0  0
  6  7  1  0  0  0
  7  8  2  0  0  0
  8  9  1  0  0  0
  8 39  1  0  0  0
  9 10  1  0  0  0
 10 11  2  0  0  0
 10 38  1  0  0  0
 11 12  1  0  0  0
 12 13  2  0  0  0
 13 14  1  0  0  0
 14 15  1  0  0  0
 14 38  2  0  0  0
 15 16  1  0  0  0
 15 43  1  0  0  0
 16 17  2  0  0  0
 16 18  1  0  0  0
 18 19  1  0  0  0
 18 20  1  0  0  0
 19 44  1  0  0  0
 20 21  2  0  0  0
 20 37  1  0  0  0
 21 22  1  0  0  0
 22 23  1  0  0  0
 22 35  2  0  0  0
 23 24  1  0  0  0
 24 25  1  0  0  0
 25 26  1  0  0  0
 25 45  1  0  0  0
 26 27  2  0  0  0
 26 28  1  0  0  0
 28 29  1  0  0  0
 28 34  1  0  0  0
 29 30  1  0  0  0
 30 31  1  0  0  0
 31 32  1  0  0  0
 31 33  1  0  0  0
 32 46  1  0  0  0
 33 34  1  0  0  0
 35 36  1  0  0  0
 36 37  2  0  0  0
 39 40  2  0  0  0
M  END
>  <AUTHOR>
    GENERATED BY OPEN BABEL 2.3.2

>  <CHROM.1>
44.34959904,45.20194555,99.40755257,-157.94155711,-100.70657257,-126.98401992
137.57520846,-49.66788044,66.63502011,-168.99512043,-53.39034913,157.11692234
75.70950707,175.12805663,-9.63352300,11.95317234,66.85997589,-0.34931225
1.04852509,1.41041583

>  <COMPND>
    UNNAMED

>  <MASTER>
        0    0    0    0    0    0    0    0   74    0   74    0

>  <Name>
ligands/mol9.pdb

>  <RI>
3.2274e+07

>  <Rbt.Current_Directory>
/home/rochoa/Projects/OCONDOR

>  <Rbt.Executable>
rbdock ($Id: //depot/dev/client3/rdock/2013.1/src/exe/rbdock.cxx#4 $)

>  <Rbt.Library>
libRbt.so (2013.1, Build901 2013/11/27)

>  <Rbt.Parameter_File>
dock.prm

>  <Rbt.Receptor>
rdock.prm

>  <SCORE>
-18.3206

>  <SCORE.INTER>
-16.8538

>  <SCORE.INTER.CONST>
1

>  <SCORE.INTER.POLAR>
-1.49056

>  <SCORE.INTER.REPUL>
0

>  <SCORE.INTER.ROT>
13

>  <SCORE.INTER.VDW>
-30.1859

>  <SCORE.INTER.norm>
-0.421344

>  <SCORE.INTRA>
-1.46681

>  <SCORE.INTRA.DIHEDRAL>
-1.07902

>  <SCORE.INTRA.DIHEDRAL.0>
10.0128

>  <SCORE.INTRA.POLAR>
0.000487999

>  <SCORE.INTRA.POLAR.0>
-0.000487999

>  <SCORE.INTRA.REPUL>
0

>  <SCORE.INTRA.REPUL.0>
0

>  <SCORE.INTRA.VDW>
-0.928957

>  <SCORE.INTRA.VDW.0>
-4.23318

>  <SCORE.INTRA.norm>
-0.0366702

>  <SCORE.RESTR>
0

>  <SCORE.RESTR.CAVITY>
0

>  <SCORE.RESTR.norm>
0

>  <SCORE.SYSTEM>
0

>  <SCORE.SYSTEM.CONST>
0

>  <SCORE.SYSTEM.DIHEDRAL>
0

>  <SCORE.SYSTEM.norm>
0

>  <SCORE.heavy>
40

>  <SCORE.norm>
-0.458014

$$$$
ligands/mol9.pdb
  rDOCK(R)          3D
libRbt.so/2013.1/901 2013/11/27
 46 49  0  0  0  0  0  0  0  0999 V2000
   -3.3541   17.5593   67.5534 N   0  0  0  0  0  0
   -3.8348   16.4732   66.3591 S   0  0  0  0  0  0
   -3.1352   16.8332   65.1514 O   0  0  0  0  0  0
   -3.7575   15.1419   66.9270 O   0  0  0  0  0  0
   -5.5461   16.9039   66.1784 C   0  0  0  0  0  0
   -5.9225   18.0788   65.5276 C   0  0  0  0  0  0
   -7.2844   18.3838   65.3800 C   0  0  0  0  0  0
   -8.2807   17.5378   65.9088 C   0  0  0  0  0  0
   -9.7656   17.8652   65.7563 C   0  0  0  0  0  0
  -10.6917   16.6744   65.5295 C   0  0  0  0  0  0
  -10.9967   16.2227   64.2355 C   0  0  0  0  0  0
  -11.9809   15.2570   64.0147 C   0  0  0  0  0  0
  -12.6044   14.6410   65.0954 C   0  0  0  0  0  0
  -12.1927   14.9512   66.3921 C   0  0  0  0  0  0
  -12.6601   14.2207   67.5013 N   0  0  0  0  0  0
  -12.2716   12.9059   67.7360 C   0  0  0  0  0  0
  -12.3702   11.9951   66.9142 O   0  0  0  0  0  0
  -11.7560   12.6392   69.1606 C   0  0  0  0  0  0
  -12.5860   13.8389   70.2659 S   0  0  0  0  0  0
  -11.8702   11.1784   69.5566 C   0  0  0  0  0  0
  -13.0047   10.5702   70.1128 C   0  0  0  0  0  0
  -12.9928    9.2108   70.4585 C   0  0  0  0  0  0
  -14.1710    8.5842   71.1520 C   0  0  0  0  0  0
  -13.9154    8.1116   72.5822 C   0  0  0  0  0  0
  -12.8457    7.1298   72.6013 N   0  0  0  0  0  0
  -11.5498    7.4559   72.9299 C   0  0  0  0  0  0
  -11.2122    8.5941   73.2364 O   0  0  0  0  0  0
  -10.5969    6.2542   72.9084 C   0  0  0  0  0  0
   -9.1242    6.6781   72.8121 C   0  0  0  0  0  0
   -8.6250    7.3230   74.1062 C   0  0  0  0  0  0
   -8.8556    6.4323   75.3251 C   0  0  0  0  0  0
   -7.9724    5.3169   75.2420 O   0  0  0  0  0  0
  -10.2930    5.9247   75.4231 C   0  0  0  0  0  0
  -10.8021    5.3243   74.1096 C   0  0  0  0  0  0
  -11.8247    8.5005   70.2111 C   0  0  0  0  0  0
  -10.7053    9.0512   69.6893 N   0  0  0  0  0  0
  -10.7424   10.3699   69.4087 C   0  0  0  0  0  0
  -11.2497   15.9670   66.6091 C   0  0  0  0  0  0
   -7.8625   16.4029   66.6231 C   0  0  0  0  0  0
   -6.5096   16.0666   66.7296 C   0  0  0  0  0  0
   -2.3447   17.4989   67.6903 H   0  0  0  0  0  0
   -3.7035   18.5147   67.4462 H   0  0  0  0  0  0
  -13.5772   14.4713   67.8525 H   0  0  0  0  0  0
  -12.4288   14.8923   69.4505 H   0  0  0  0  0  0
  -13.0638    6.1627   72.3995 H   0  0  0  0  0  0
   -8.1059    4.7880   76.0489 H   0  0  0  0  0  0
  1  2  1  0  0  0
  1 41  1  0  0  0
  1 42  1  0  0  0
  2  3  2  0  0  0
  2  4  2  0  0  0
  2  5  1  0  0  0
  5  6  2  0  0  0
  5 40  1  0  0  0
  6  7  1  0  0  0
  7  8  2  0  0  0
  8  9  1  0  0  0
  8 39  1  0  0  0
  9 10  1  0  0  0
 10 11  2  0  0  0
 10 38  1  0  0  0
 11 12  1  0  0  0
 12 13  2  0  0  0
 13 14  1  0  0  0
 14 15  1  0  0  0
 14 38  2  0  0  0
 15 16  1  0  0  0
 15 43  1  0  0  0
 16 17  2  0  0  0
 16 18  1  0  0  0
 18 19  1  0  0  0
 18 20  1  0  0  0
 19 44  1  0  0  0
 20 21  2  0  0  0
 20 37  1  0  0  0
 21 22  1  0  0  0
 22 23  1  0  0  0
 22 35  2  0  0  0
 23 24  1  0  0  0
 24 25  1  0  0  0
 25 26  1  0  0  0
 25 45  1  0  0  0
 26 27  2  0  0  0
 26 28  1  0  0  0
 28 29  1  0  0  0
 28 34  1  0  0  0
 29 30  1  0  0  0
 30 31  1  0  0  0
 31 32  1  0  0  0
 31 33  1  0  0  0
 32 46  1  0  0  0
 33 34  1  0  0  0
 35 36  1  0  0  0
 36 37  2  0  0  0
 39 40  2  0  0  0
M  END
>  <AUTHOR>
    GENERATED BY OPEN BABEL 2.3.2

>  <CHROM.1>
-59.75608598,73.94227328,143.08746644,-90.49304541,70.14419187,-53.62057156
28.35325528,-43.73933417,-86.06592930,-113.73655537,-58.93913170,98.91910516
161.00811600,177.26642979,-9.76272910,12.33373877,69.11051197,-1.24058416
0.14823282,2.44491615

>  <COMPND>
    UNNAMED

>  <MASTER>
        0    0    0    0    0    0    0    0   74    0   74    0

>  <Name>
ligands/mol9.pdb

>  <RI>
3.2274e+07

>  <Rbt.Current_Directory>
/home/rochoa/Projects/OCONDOR

>  <Rbt.Executable>
rbdock ($Id: //depot/dev/client3/rdock/2013.1/src/exe/rbdock.cxx#4 $)

>  <Rbt.Library>
libRbt.so (2013.1, Build901 2013/11/27)

>  <Rbt.Parameter_File>
dock.prm

>  <Rbt.Receptor>
rdock.prm

>  <SCORE>
-17.1176

>  <SCORE.INTER>
-15.3582

>  <SCORE.INTER.CONST>
1

>  <SCORE.INTER.POLAR>
-0.894427

>  <SCORE.INTER.REPUL>
0

>  <SCORE.INTER.ROT>
13

>  <SCORE.INTER.VDW>
-30.7172

>  <SCORE.INTER.norm>
-0.383955

>  <SCORE.INTRA>
-1.75939

>  <SCORE.INTRA.DIHEDRAL>
-0.640556

>  <SCORE.INTRA.DIHEDRAL.0>
10.0128

>  <SCORE.INTRA.POLAR>
-0.153324

>  <SCORE.INTRA.POLAR.0>
-0.000487999

>  <SCORE.INTRA.REPUL>
0

>  <SCORE.INTRA.REPUL.0>
0

>  <SCORE.INTRA.VDW>
-0.917811

>  <SCORE.INTRA.VDW.0>
-4.23318

>  <SCORE.INTRA.norm>
-0.0439848

>  <SCORE.RESTR>
0

>  <SCORE.RESTR.CAVITY>
0

>  <SCORE.RESTR.norm>
0

>  <SCORE.SYSTEM>
0

>  <SCORE.SYSTEM.CONST>
0

>  <SCORE.SYSTEM.DIHEDRAL>
0

>  <SCORE.SYSTEM.norm>
0

>  <SCORE.heavy>
40

>  <SCORE.norm>
-0.42794

$$$$
ligands/mol9.pdb
  rDOCK(R)          3D
libRbt.so/2013.1/901 2013/11/27
 46 49  0  0  0  0  0  0  0  0999 V2000
   -8.8509    6.7087   77.3299 N   0  0  0  0  0  0
   -9.6348    5.2574   76.9887 S   0  0  0  0  0  0
   -8.6186    4.2407   76.8828 O   0  0  0  0  0  0
  -10.7497    5.1402   77.9074 O   0  0  0  0  0  0
  -10.2788    5.5926   75.3701 C   0  0  0  0  0  0
  -10.2630    6.8862   74.8485 C   0  0  0  0  0  0
  -10.7593    7.1189   73.5566 C   0  0  0  0  0  0
  -11.3059    6.0709   72.7878 C   0  0  0  0  0  0
  -11.8526    6.3170   71.3821 C   0  0  0  0  0  0
  -12.3539    7.7297   71.0988 C   0  0  0  0  0  0
  -13.6973    8.0827   71.3044 C   0  0  0  0  0  0
  -14.2003    9.3131   70.8766 C   0  0  0  0  0  0
  -13.3416   10.2632   70.3324 C   0  0  0  0  0  0
  -11.9725    9.9986   70.2784 C   0  0  0  0  0  0
  -11.0496   10.9969   69.9125 N   0  0  0  0  0  0
   -9.9032   10.7092   69.1791 C   0  0  0  0  0  0
   -8.7868   10.5461   69.6705 O   0  0  0  0  0  0
  -10.1144   10.6739   67.6557 C   0  0  0  0  0  0
  -10.9287    9.0825   67.2628 S   0  0  0  0  0  0
  -10.8037   11.9219   67.1351 C   0  0  0  0  0  0
  -10.1632   13.1126   66.7630 C   0  0  0  0  0  0
  -10.9041   14.2142   66.3102 C   0  0  0  0  0  0
  -10.2286   15.5245   66.0128 C   0  0  0  0  0  0
   -8.7421   15.4339   65.6722 C   0  0  0  0  0  0
   -8.1421   16.7561   65.6937 N   0  0  0  0  0  0
   -7.2002   17.1245   66.6268 C   0  0  0  0  0  0
   -6.7979   16.3601   67.4971 O   0  0  0  0  0  0
   -6.6887   18.5584   66.4403 C   0  0  0  0  0  0
   -7.5433   19.5864   67.1958 C   0  0  0  0  0  0
   -7.3559   19.4885   68.7107 C   0  0  0  0  0  0
   -5.8890   19.5937   69.1222 C   0  0  0  0  0  0
   -5.4533   20.9324   68.8999 O   0  0  0  0  0  0
   -4.9864   18.6392   68.3429 C   0  0  0  0  0  0
   -5.2138   18.7080   66.8301 C   0  0  0  0  0  0
  -12.2834   14.0661   66.2324 C   0  0  0  0  0  0
  -12.9410   12.9411   66.5936 N   0  0  0  0  0  0
  -12.1974   11.9185   67.0631 C   0  0  0  0  0  0
  -11.4823    8.7378   70.6501 C   0  0  0  0  0  0
  -11.3741    4.7966   73.3749 C   0  0  0  0  0  0
  -10.8351    4.5478   74.6407 C   0  0  0  0  0  0
   -8.0446    6.8196   76.7144 H   0  0  0  0  0  0
   -9.4537    7.5336   77.3796 H   0  0  0  0  0  0
  -10.9786   11.7950   70.5331 H   0  0  0  0  0  0
  -12.0898    9.3825   67.8635 H   0  0  0  0  0  0
   -8.3982   17.4228   64.9771 H   0  0  0  0  0  0
   -4.5520   21.0018   69.2627 H   0  0  0  0  0  0
  1  2  1  0  0  0
  1 41  1  0  0  0
  1 42  1  0  0  0
  2  3  2  0  0  0
  2  4  2  0  0  0
  2  5  1  0  0  0
  5  6  2  0  0  0
  5 40  1  0  0  0
  6  7  1  0  0  0
  7  8  2  0  0  0
  8  9  1  0  0  0
  8 39  1  0  0  0
  9 10  1  0  0  0
 10 11  2  0  0  0
 10 38  1  0  0  0
 11 12  1  0  0  0
 12 13  2  0  0  0
 13 14  1  0  0  0
 14 15  1  0  0  0
 14 38  2  0  0  0
 15 16  1  0  0  0
 15 43  1  0  0  0
 16 17  2  0  0  0
 16 18  1  0  0  0
 18 19  1  0  0  0
 18 20  1  0  0  0
 19 44  1  0  0  0
 20 21  2  0  0  0
 20 37  1  0  0  0
 21 22  1  0  0  0
 22 23  1  0  0  0
 22 35  2  0  0  0
 23 24  1  0  0  0
 24 25  1  0  0  0
 25 26  1  0  0  0
 25 45  1  0  0  0
 26 27  2  0  0  0
 26 28  1  0  0  0
 28 29  1  0  0  0
 28 34  1  0  0  0
 29 30  1  0  0  0
 30 31  1  0  0  0
 31 32  1  0  0  0
 31 33  1  0  0  0
 32 46  1  0  0  0
 33 34  1  0  0  0
 35 36  1  0  0  0
 36 37  2  0  0  0
 39 40  2  0  0  0
M  END
>  <AUTHOR>
    GENERATED BY OPEN BABEL 2.3.2

>  <CHROM.1>
45.98569986,-11.37738959,-26.45663037,-91.53221887,-144.91150368,-98.00443520
-77.04546869,67.93375024,86.76405955,24.23296186,-167.59551227,113.35281090
88.73308749,173.63374959,-9.83538858,11.38136528,70.18964000,-1.88696960
-0.79783736,-0.81032657

>  <COMPND>
    UNNAMED

>  <MASTER>
        0    0    0    0    0    0    0    0   74    0   74    0

>  <Name>
ligands/mol9.pdb

>  <RI>
3.2274e+07

>  <Rbt.Current_Directory>
/home/rochoa/Projects/OCONDOR

>  <Rbt.Executable>
rbdock ($Id: //depot/dev/client3/rdock/2013.1/src/exe/rbdock.cxx#4 $)

>  <Rbt.Library>
libRbt.so (2013.1, Build901 2013/11/27)

>  <Rbt.Parameter_File>
dock.prm

>  <Rbt.Receptor>
rdock.prm

>  <SCORE>
-15.5756

>  <SCORE.INTER>
-14.7967

>  <SCORE.INTER.CONST>
1

>  <SCORE.INTER.POLAR>
-2.31893

>  <SCORE.INTER.REPUL>
0.160776

>  <SCORE.INTER.ROT>
13

>  <SCORE.INTER.VDW>
-26.1162

>  <SCORE.INTER.norm>
-0.369917

>  <SCORE.INTRA>
-0.778891

>  <SCORE.INTRA.DIHEDRAL>
0.629942

>  <SCORE.INTRA.DIHEDRAL.0>
10.0128

>  <SCORE.INTRA.POLAR>
0.000487999

>  <SCORE.INTRA.POLAR.0>
-0.000487999

>  <SCORE.INTRA.REPUL>
0

>  <SCORE.INTRA.REPUL.0>
0

>  <SCORE.INTRA.VDW>
-1.09552

>  <SCORE.INTRA.VDW.0>
-4.23318

>  <SCORE.INTRA.norm>
-0.0194723

>  <SCORE.RESTR>
0

>  <SCORE.RESTR.CAVITY>
0

>  <SCORE.RESTR.norm>
0

>  <SCORE.SYSTEM>
0

>  <SCORE.SYSTEM.CONST>
0

>  <SCORE.SYSTEM.DIHEDRAL>
0

>  <SCORE.SYSTEM.norm>
0

>  <SCORE.heavy>
40

>  <SCORE.norm>
-0.389389

$$$$
ligands/mol9.pdb
  rDOCK(R)          3D
libRbt.so/2013.1/901 2013/11/27
 46 49  0  0  0  0  0  0  0  0999 V2000
   -8.9325   20.1540   65.5050 N   0  0  0  0  0  0
   -8.9634   20.4484   67.1631 S   0  0  0  0  0  0
   -7.6104   20.3184   67.6427 O   0  0  0  0  0  0
   -9.7445   21.6507   67.3758 O   0  0  0  0  0  0
   -9.9086   19.0608   67.7360 C   0  0  0  0  0  0
   -9.9941   18.7672   69.0970 C   0  0  0  0  0  0
  -10.7666   17.6761   69.5237 C   0  0  0  0  0  0
  -11.4325   16.8493   68.5958 C   0  0  0  0  0  0
  -12.2719   15.6565   69.0521 C   0  0  0  0  0  0
  -12.1160   14.3786   68.2337 C   0  0  0  0  0  0
  -11.8519   14.4220   66.8553 C   0  0  0  0  0  0
  -11.8901   13.2678   66.0702 C   0  0  0  0  0  0
  -12.0843   12.0267   66.6687 C   0  0  0  0  0  0
  -12.1761   11.9430   68.0585 C   0  0  0  0  0  0
  -12.1840   10.6981   68.7163 N   0  0  0  0  0  0
  -11.0093   10.0488   69.0814 C   0  0  0  0  0  0
   -9.8788   10.4611   68.8240 O   0  0  0  0  0  0
  -11.2216    8.7013   69.7926 C   0  0  0  0  0  0
  -10.9513    7.3877   68.5472 S   0  0  0  0  0  0
  -10.4119    8.5846   71.0711 C   0  0  0  0  0  0
   -9.0331    8.8123   71.1872 C   0  0  0  0  0  0
   -8.3819    8.6573   72.4199 C   0  0  0  0  0  0
   -6.8881    8.7972   72.5225 C   0  0  0  0  0  0
   -6.0783    7.6619   71.8986 C   0  0  0  0  0  0
   -6.5862    6.3783   72.3493 N   0  0  0  0  0  0
   -7.4935    5.6455   71.6191 C   0  0  0  0  0  0
   -7.9281    6.0219   70.5361 O   0  0  0  0  0  0
   -7.8674    4.3116   72.2775 C   0  0  0  0  0  0
   -8.5937    4.5045   73.6166 C   0  0  0  0  0  0
  -10.0088    5.0542   73.4300 C   0  0  0  0  0  0
  -10.8426    4.1998   72.4776 C   0  0  0  0  0  0
  -11.1354    2.9623   73.1212 O   0  0  0  0  0  0
  -10.1288    3.9188   71.1567 C   0  0  0  0  0  0
   -8.6959    3.4147   71.3509 C   0  0  0  0  0  0
   -9.1605    8.2890   73.5101 C   0  0  0  0  0  0
  -10.4890    8.0471   73.4386 N   0  0  0  0  0  0
  -11.0711    8.1662   72.2278 C   0  0  0  0  0  0
  -12.2011   13.1106   68.8358 C   0  0  0  0  0  0
  -11.2621   17.1304   67.2301 C   0  0  0  0  0  0
  -10.5362   18.2456   66.8008 C   0  0  0  0  0  0
   -8.8301   21.0342   64.9990 H   0  0  0  0  0  0
   -8.2878   19.4207   65.1999 H   0  0  0  0  0  0
  -12.9734   10.0919   68.5252 H   0  0  0  0  0  0
   -9.7500    7.8338   68.1512 H   0  0  0  0  0  0
   -6.2365    5.9890   73.2152 H   0  0  0  0  0  0
  -11.7261    3.1637   73.8690 H   0  0  0  0  0  0
  1  2  1  0  0  0
  1 41  1  0  0  0
  1 42  1  0  0  0
  2  3  2  0  0  0
  2  4  2  0  0  0
  2  5  1  0  0  0
  5  6  2  0  0  0
  5 40  1  0  0  0
  6  7  1  0  0  0
  7  8  2  0  0  0
  8  9  1  0  0  0
  8 39  1  0  0  0
  9 10  1  0  0  0
 10 11  2  0  0  0
 10 38  1  0  0  0
 11 12  1  0  0  0
 12 13  2  0  0  0
 13 14  1  0  0  0
 14 15  1  0  0  0
 14 38  2  0  0  0
 15 16  1  0  0  0
 15 43  1  0  0  0
 16 17  2  0  0  0
 16 18  1  0  0  0
 18 19  1  0  0  0
 18 20  1  0  0  0
 19 44  1  0  0  0
 20 21  2  0  0  0
 20 37  1  0  0  0
 21 22  1  0  0  0
 22 23  1  0  0  0
 22 35  2  0  0  0
 23 24  1  0  0  0
 24 25  1  0  0  0
 25 26  1  0  0  0
 25 45  1  0  0  0
 26 27  2  0  0  0
 26 28  1  0  0  0
 28 29  1  0  0  0
 28 34  1  0  0  0
 29 30  1  0  0  0
 30 31  1  0  0  0
 31 32  1  0  0  0
 31 33  1  0  0  0
 32 46  1  0  0  0
 33 34  1  0  0  0
 35 36  1  0  0  0
 36 37  2  0  0  0
 39 40  2  0  0  0
M  END
>  <AUTHOR>
    GENERATED BY OPEN BABEL 2.3.2

>  <CHROM.1>
-93.10388017,168.82395222,-137.74772206,-32.46770255,86.72786708,-3.02261463
100.57168950,52.51437605,-52.00341202,-71.20694234,-48.96336356,95.64627771
64.28450569,66.92013585,-9.94877621,11.29776473,69.76672623,-1.63642362,0.58390708
2.84207514

>  <COMPND>
    UNNAMED

>  <MASTER>
        0    0    0    0    0    0    0    0   74    0   74    0

>  <Name>
ligands/mol9.pdb

>  <RI>
3.2274e+07

>  <Rbt.Current_Directory>
/home/rochoa/Projects/OCONDOR

>  <Rbt.Executable>
rbdock ($Id: //depot/dev/client3/rdock/2013.1/src/exe/rbdock.cxx#4 $)

>  <Rbt.Library>
libRbt.so (2013.1, Build901 2013/11/27)

>  <Rbt.Parameter_File>
dock.prm

>  <Rbt.Receptor>
rdock.prm

>  <SCORE>
-14.6142

>  <SCORE.INTER>
-12.2153

>  <SCORE.INTER.CONST>
1

>  <SCORE.INTER.POLAR>
-1.75142

>  <SCORE.INTER.REPUL>
0

>  <SCORE.INTER.ROT>
13

>  <SCORE.INTER.VDW>
-24.6605

>  <SCORE.INTER.norm>
-0.305383

>  <SCORE.INTRA>
-2.39888

>  <SCORE.INTRA.DIHEDRAL>
-0.461936

>  <SCORE.INTRA.DIHEDRAL.0>
10.0128

>  <SCORE.INTRA.POLAR>
0.000487999

>  <SCORE.INTRA.POLAR.0>
-0.000487999

>  <SCORE.INTRA.REPUL>
0

>  <SCORE.INTRA.REPUL.0>
0

>  <SCORE.INTRA.VDW>
-2.16957

>  <SCORE.INTRA.VDW.0>
-4.23318

>  <SCORE.INTRA.norm>
-0.059972

>  <SCORE.RESTR>
0

>  <SCORE.RESTR.CAVITY>
0

>  <SCORE.RESTR.norm>
0

>  <SCORE.SYSTEM>
0

>  <SCORE.SYSTEM.CONST>
0

>  <SCORE.SYSTEM.DIHEDRAL>
0

>  <SCORE.SYSTEM.norm>
0

>  <SCORE.heavy>
40

>  <SCORE.norm>
-0.365355

$$$$
ligands/mol9.pdb
  rDOCK(R)          3D
libRbt.so/2013.1/901 2013/11/27
 46 49  0  0  0  0  0  0  0  0999 V2000
  -10.3723    4.5768   68.5632 N   0  0  0  0  0  0
  -10.9154    6.0899   69.0658 S   0  0  0  0  0  0
  -12.2989    6.1955   68.6755 O   0  0  0  0  0  0
  -10.4856    6.2712   70.4381 O   0  0  0  0  0  0
   -9.9468    7.1580   68.0324 C   0  0  0  0  0  0
   -9.0362    6.6323   67.1158 C   0  0  0  0  0  0
   -8.2988    7.5001   66.2957 C   0  0  0  0  0  0
   -8.4383    8.8988   66.4058 C   0  0  0  0  0  0
   -7.6355    9.8506   65.5196 C   0  0  0  0  0  0
   -8.2770   10.2217   64.1862 C   0  0  0  0  0  0
   -7.6854    9.8592   62.9655 C   0  0  0  0  0  0
   -8.1659   10.3500   61.7496 C   0  0  0  0  0  0
   -9.3197   11.1273   61.7216 C   0  0  0  0  0  0
  -10.0212   11.3555   62.9061 C   0  0  0  0  0  0
  -11.2864   11.9733   62.8982 N   0  0  0  0  0  0
  -11.7559   12.7077   63.9822 C   0  0  0  0  0  0
  -12.5948   12.3014   64.7857 O   0  0  0  0  0  0
  -11.1903   14.1352   64.0766 C   0  0  0  0  0  0
  -12.5941   15.2861   63.8429 S   0  0  0  0  0  0
  -10.3544   14.3482   65.3255 C   0  0  0  0  0  0
  -10.0105   15.5917   65.8748 C   0  0  0  0  0  0
   -9.2148   15.6713   67.0272 C   0  0  0  0  0  0
   -8.7578   17.0034   67.5547 C   0  0  0  0  0  0
   -9.0003   18.1941   66.6287 C   0  0  0  0  0  0
   -8.2484   19.3478   67.0894 N   0  0  0  0  0  0
   -6.8864   19.3126   67.2821 C   0  0  0  0  0  0
   -6.2147   18.3089   67.0705 O   0  0  0  0  0  0
   -6.3036   20.6534   67.7462 C   0  0  0  0  0  0
   -4.8585   20.5199   68.2480 C   0  0  0  0  0  0
   -3.8766   20.2437   67.1082 C   0  0  0  0  0  0
   -3.9715   21.2851   65.9952 C   0  0  0  0  0  0
   -3.4493   22.5174   66.4851 O   0  0  0  0  0  0
   -5.4038   21.5064   65.5130 C   0  0  0  0  0  0
   -6.3895   21.7342   66.6626 C   0  0  0  0  0  0
   -8.8032   14.4750   67.6014 C   0  0  0  0  0  0
   -9.1011   13.2563   67.0966 N   0  0  0  0  0  0
   -9.8331   13.2223   65.9644 C   0  0  0  0  0  0
   -9.4997   10.9142   64.1314 C   0  0  0  0  0  0
   -9.3085    9.3931   67.3914 C   0  0  0  0  0  0
  -10.0837    8.5340   68.1762 C   0  0  0  0  0  0
  -10.6935    4.3920   67.6124 H   0  0  0  0  0  0
   -9.3761    4.3957   68.7090 H   0  0  0  0  0  0
  -12.0010   11.5308   62.3318 H   0  0  0  0  0  0
  -13.5310   14.3293   63.7664 H   0  0  0  0  0  0
   -8.7353   20.2214   67.2427 H   0  0  0  0  0  0
   -3.9785   22.7597   67.2661 H   0  0  0  0  0  0
  1  2  1  0  0  0
  1 41  1  0  0  0
  1 42  1  0  0  0
  2  3  2  0  0  0
  2  4  2  0  0  0
  2  5  1  0  0  0
  5  6  2  0  0  0
  5 40  1  0  0  0
  6  7  1  0  0  0
  7  8  2  0  0  0
  8  9  1  0  0  0
  8 39  1  0  0  0
  9 10  1  0  0  0
 10 11  2  0  0  0
 10 38  1  0  0  0
 11 12  1  0  0  0
 12 13  2  0  0  0
 13 14  1  0  0  0
 14 15  1  0  0  0
 14 38  2  0  0  0
 15 16  1  0  0  0
 15 43  1  0  0  0
 16 17  2  0  0  0
 16 18  1  0  0  0
 18 19  1  0  0  0
 18 20  1  0  0  0
 19 44  1  0  0  0
 20 21  2  0  0  0
 20 37  1  0  0  0
 21 22  1  0  0  0
 22 23  1  0  0  0
 22 35  2  0  0  0
 23 24  1  0  0  0
 24 25  1  0  0  0
 25 26  1  0  0  0
 25 45  1  0  0  0
 26 27  2  0  0  0
 26 28  1  0  0  0
 28 29  1  0  0  0
 28 34  1  0  0  0
 29 30  1  0  0  0
 30 31  1  0  0  0
 31 32  1  0  0  0
 31 33  1  0  0  0
 32 46  1  0  0  0
 33 34  1  0  0  0
 35 36  1  0  0  0
 36 37  2  0  0  0
 39 40  2  0  0  0
M  END
>  <AUTHOR>
    GENERATED BY OPEN BABEL 2.3.2

>  <CHROM.1>
44.51418786,0.02399816,89.02870144,-116.03506057,-152.41321018,-103.59860867
115.15322313,3.37428822,-161.92570765,-10.55138053,-166.51400798,55.65068727
167.42591298,-58.56475726,-8.93234638,13.33362257,66.20236677,-2.12038630
-0.93160163,-0.49711192

>  <COMPND>
    UNNAMED

>  <MASTER>
        0    0    0    0    0    0    0    0   74    0   74    0

>  <Name>
ligands/mol9.pdb

>  <RI>
3.2274e+07

>  <Rbt.Current_Directory>
/home/rochoa/Projects/OCONDOR

>  <Rbt.Executable>
rbdock ($Id: //depot/dev/client3/rdock/2013.1/src/exe/rbdock.cxx#4 $)

>  <Rbt.Library>
libRbt.so (2013.1, Build901 2013/11/27)

>  <Rbt.Parameter_File>
dock.prm

>  <Rbt.Receptor>
rdock.prm

>  <SCORE>
-9.24658

>  <SCORE.INTER>
-11.795

>  <SCORE.INTER.CONST>
1

>  <SCORE.INTER.POLAR>
-1.70379

>  <SCORE.INTER.REPUL>
0

>  <SCORE.INTER.ROT>
13

>  <SCORE.INTER.VDW>
-24.4022

>  <SCORE.INTER.norm>
-0.294876

>  <SCORE.INTRA>
2.54846

>  <SCORE.INTRA.DIHEDRAL>
1.13722

>  <SCORE.INTRA.DIHEDRAL.0>
10.0128

>  <SCORE.INTRA.POLAR>
0.000487999

>  <SCORE.INTRA.POLAR.0>
-0.000487999

>  <SCORE.INTRA.REPUL>
0

>  <SCORE.INTRA.REPUL.0>
0

>  <SCORE.INTRA.VDW>
1.97819

>  <SCORE.INTRA.VDW.0>
-4.23318

>  <SCORE.INTRA.norm>
0.0637115

>  <SCORE.RESTR>
0

>  <SCORE.RESTR.CAVITY>
0

>  <SCORE.RESTR.norm>
0

>  <SCORE.SYSTEM>
0

>  <SCORE.SYSTEM.CONST>
0

>  <SCORE.SYSTEM.DIHEDRAL>
0

>  <SCORE.SYSTEM.norm>
0

>  <SCORE.heavy>
40

>  <SCORE.norm>
-0.231165

$$$$
ligands/mol9.pdb
  rDOCK(R)          3D
libRbt.so/2013.1/901 2013/11/27
 46 49  0  0  0  0  0  0  0  0999 V2000
   -3.3166    9.6366   72.9032 N   0  0  0  0  0  0
   -4.9376   10.0626   73.0697 S   0  0  0  0  0  0
   -5.2758    9.9103   74.4625 O   0  0  0  0  0  0
   -5.1327   11.3121   72.3613 O   0  0  0  0  0  0
   -5.7246    8.7690   72.1456 C   0  0  0  0  0  0
   -5.6813    8.7586   70.7514 C   0  0  0  0  0  0
   -6.2941    7.7111   70.0466 C   0  0  0  0  0  0
   -6.9834    6.6843   70.7237 C   0  0  0  0  0  0
   -7.6572    5.5428   69.9632 C   0  0  0  0  0  0
   -9.1574    5.6907   69.7292 C   0  0  0  0  0  0
   -9.7048    5.6255   68.4378 C   0  0  0  0  0  0
  -11.0438    5.9410   68.1980 C   0  0  0  0  0  0
  -11.8930    6.2214   69.2641 C   0  0  0  0  0  0
  -11.4100    6.1220   70.5695 C   0  0  0  0  0  0
  -12.2748    6.2118   71.6770 N   0  0  0  0  0  0
  -12.6196    7.4329   72.2469 C   0  0  0  0  0  0
  -12.1333    7.8763   73.2868 O   0  0  0  0  0  0
  -13.7355    8.1888   71.5054 C   0  0  0  0  0  0
  -15.2585    8.0155   72.5055 S   0  0  0  0  0  0
  -13.3348    9.6068   71.1413 C   0  0  0  0  0  0
  -13.0031   10.0561   69.8550 C   0  0  0  0  0  0
  -12.6287   11.3900   69.6357 C   0  0  0  0  0  0
  -12.1708   11.8460   68.2777 C   0  0  0  0  0  0
  -10.6764   12.1379   68.1530 C   0  0  0  0  0  0
  -10.3300   13.3158   68.9282 N   0  0  0  0  0  0
  -10.7445   14.5798   68.5760 C   0  0  0  0  0  0
  -11.4403   14.7963   67.5898 O   0  0  0  0  0  0
  -10.2816   15.6659   69.5551 C   0  0  0  0  0  0
   -8.7648   15.8979   69.4957 C   0  0  0  0  0  0
   -8.3381   16.5852   68.1975 C   0  0  0  0  0  0
   -9.0971   17.8877   67.9537 C   0  0  0  0  0  0
   -8.6562   18.8516   68.9064 O   0  0  0  0  0  0
  -10.6106   17.7217   68.0754 C   0  0  0  0  0  0
  -11.0273   16.9899   69.3544 C   0  0  0  0  0  0
  -12.6188   12.2383   70.7359 C   0  0  0  0  0  0
  -12.9185   11.8428   71.9938 N   0  0  0  0  0  0
  -13.2331   10.5433   72.1710 C   0  0  0  0  0  0
  -10.0501    5.8675   70.8013 C   0  0  0  0  0  0
   -7.0706    6.7684   72.1231 C   0  0  0  0  0  0
   -6.4192    7.7808   72.8342 C   0  0  0  0  0  0
   -3.1631    8.7029   73.2854 H   0  0  0  0  0  0
   -2.9181    9.7760   71.9715 H   0  0  0  0  0  0
  -12.2806    5.4205   72.3102 H   0  0  0  0  0  0
  -14.6237    7.7835   73.6640 H   0  0  0  0  0  0
   -9.7930   13.2033   69.7782 H   0  0  0  0  0  0
   -9.1551   19.6702   68.7341 H   0  0  0  0  0  0
  1  2  1  0  0  0
  1 41  1  0  0  0
  1 42  1  0  0  0
  2  3  2  0  0  0
  2  4  2  0  0  0
  2  5  1  0  0  0
  5  6  2  0  0  0
  5 40  1  0  0  0
  6  7  1  0  0  0
  7  8  2  0  0  0
  8  9  1  0  0  0
  8 39  1  0  0  0
  9 10  1  0  0  0
 10 11  2  0  0  0
 10 38  1  0  0  0
 11 12  1  0  0  0
 12 13  2  0  0  0
 13 14  1  0  0  0
 14 15  1  0  0  0
 14 38  2  0  0  0
 15 16  1  0  0  0
 15 43  1  0  0  0
 16 17  2  0  0  0
 16 18  1  0  0  0
 18 19  1  0  0  0
 18 20  1  0  0  0
 19 44  1  0  0  0
 20 21  2  0  0  0
 20 37  1  0  0  0
 21 22  1  0  0  0
 22 23  1  0  0  0
 22 35  2  0  0  0
 23 24  1  0  0  0
 24 25  1  0  0  0
 25 26  1  0  0  0
 25 45  1  0  0  0
 26 27  2  0  0  0
 26 28  1  0  0  0
 28 29  1  0  0  0
 28 34  1  0  0  0
 29 30  1  0  0  0
 30 31  1  0  0  0
 31 32  1  0  0  0
 31 33  1  0  0  0
 32 46  1  0  0  0
 33 34  1  0  0  0
 35 36  1  0  0  0
 36 37  2  0  0  0
 39 40  2  0  0  0
M  END
>  <AUTHOR>
    GENERATED BY OPEN BABEL 2.3.2

>  <CHROM.1>
54.40182564,-74.27420083,-98.14128883,124.65529181,-86.81006598,-101.99543611
105.02208018,23.53848995,105.84030423,-107.70776136,-68.43816483,-69.04692391
69.34477214,-179.77813557,-9.80512294,10.47903134,70.62587524,-1.52782281
-0.17182313,-0.25997866

>  <COMPND>
    UNNAMED

>  <MASTER>
        0    0    0    0    0    0    0    0   74    0   74    0

>  <Name>
ligands/mol9.pdb

>  <RI>
3.2274e+07

>  <Rbt.Current_Directory>
/home/rochoa/Projects/OCONDOR

>  <Rbt.Executable>
rbdock ($Id: //depot/dev/client3/rdock/2013.1/src/exe/rbdock.cxx#4 $)

>  <Rbt.Library>
libRbt.so (2013.1, Build901 2013/11/27)

>  <Rbt.Parameter_File>
dock.prm

>  <Rbt.Receptor>
rdock.prm

>  <SCORE>
-12.9463

>  <SCORE.INTER>
-11.5161

>  <SCORE.INTER.CONST>
1

>  <SCORE.INTER.POLAR>
-1.4822

>  <SCORE.INTER.REPUL>
0

>  <SCORE.INTER.ROT>
13

>  <SCORE.INTER.VDW>
-24.8766

>  <SCORE.INTER.norm>
-0.287903

>  <SCORE.INTRA>
-1.43017

>  <SCORE.INTRA.DIHEDRAL>
0.132329

>  <SCORE.INTRA.DIHEDRAL.0>
10.0128

>  <SCORE.INTRA.POLAR>
0.000487999

>  <SCORE.INTRA.POLAR.0>
-0.000487999

>  <SCORE.INTRA.REPUL>
0

>  <SCORE.INTRA.REPUL.0>
0

>  <SCORE.INTRA.VDW>
-1.49799

>  <SCORE.INTRA.VDW.0>
-4.23318

>  <SCORE.INTRA.norm>
-0.0357541

>  <SCORE.RESTR>
0

>  <SCORE.RESTR.CAVITY>
0

>  <SCORE.RESTR.norm>
0

>  <SCORE.SYSTEM>
0

>  <SCORE.SYSTEM.CONST>
0

>  <SCORE.SYSTEM.DIHEDRAL>
0

>  <SCORE.SYSTEM.norm>
0

>  <SCORE.heavy>
40

>  <SCORE.norm>
-0.323657

$$$$
ligands/mol9.pdb
  rDOCK(R)          3D
libRbt.so/2013.1/901 2013/11/27
 46 49  0  0  0  0  0  0  0  0999 V2000
   -9.2448    4.1122   80.1046 N   0  0  0  0  0  0
  -10.4658    5.1771   79.6441 S   0  0  0  0  0  0
  -11.7078    4.4476   79.6975 O   0  0  0  0  0  0
  -10.2645    6.4111   80.3773 O   0  0  0  0  0  0
  -10.0433    5.4627   77.9450 C   0  0  0  0  0  0
  -10.5043    4.6111   76.9411 C   0  0  0  0  0  0
  -10.1724    4.8734   75.6030 C   0  0  0  0  0  0
   -9.3512    5.9664   75.2581 C   0  0  0  0  0  0
   -8.9815    6.2561   73.8039 C   0  0  0  0  0  0
   -9.8069    7.3334   73.1072 C   0  0  0  0  0  0
  -11.1552    7.5470   73.4363 C   0  0  0  0  0  0
  -11.9624    8.4000   72.6808 C   0  0  0  0  0  0
  -11.4074    9.1446   71.6446 C   0  0  0  0  0  0
  -10.0332    9.0775   71.4122 C   0  0  0  0  0  0
   -9.4026    9.9493   70.5040 N   0  0  0  0  0  0
   -9.5985    9.8519   69.1303 C   0  0  0  0  0  0
   -9.0467    9.0233   68.4068 O   0  0  0  0  0  0
  -10.5290   10.9267   68.5424 C   0  0  0  0  0  0
  -12.2467   10.4002   68.8920 S   0  0  0  0  0  0
  -10.1565   12.3277   68.9923 C   0  0  0  0  0  0
  -11.0058   13.2238   69.6572 C   0  0  0  0  0  0
  -10.5597   14.5056   70.0117 C   0  0  0  0  0  0
  -11.5010   15.5033   70.6284 C   0  0  0  0  0  0
  -12.5311   16.1089   69.6765 C   0  0  0  0  0  0
  -11.8654   16.7050   68.5319 N   0  0  0  0  0  0
  -11.5026   15.9728   67.4248 C   0  0  0  0  0  0
  -11.7237   14.7707   67.3259 O   0  0  0  0  0  0
  -10.8368   16.8160   66.3301 C   0  0  0  0  0  0
   -9.8432   17.8373   66.9026 C   0  0  0  0  0  0
   -8.5825   17.1679   67.4524 C   0  0  0  0  0  0
   -7.9047   16.2700   66.4197 C   0  0  0  0  0  0
   -7.3316   17.0968   65.4102 O   0  0  0  0  0  0
   -8.8720   15.2839   65.7677 C   0  0  0  0  0  0
  -10.1532   15.9539   65.2630 C   0  0  0  0  0  0
   -9.2483   14.8351   69.6923 C   0  0  0  0  0  0
   -8.4016   14.0063   69.0405 N   0  0  0  0  0  0
   -8.8804   12.7981   68.6797 C   0  0  0  0  0  0
   -9.2392    8.1720   72.1316 C   0  0  0  0  0  0
   -8.8440    6.7576   76.3021 C   0  0  0  0  0  0
   -9.2121    6.5324   77.6320 C   0  0  0  0  0  0
   -8.3376    4.5739   80.0328 H   0  0  0  0  0  0
   -9.3958    3.6262   80.9920 H   0  0  0  0  0  0
   -8.5057   10.3258   70.7886 H   0  0  0  0  0  0
  -12.1758    9.2609   68.1877 H   0  0  0  0  0  0
  -11.6908   17.7015   68.5300 H   0  0  0  0  0  0
   -8.0689   17.4560   64.8847 H   0  0  0  0  0  0
  1  2  1  0  0  0
  1 41  1  0  0  0
  1 42  1  0  0  0
  2  3  2  0  0  0
  2  4  2  0  0  0
  2  5  1  0  0  0
  5  6  2  0  0  0
  5 40  1  0  0  0
  6  7  1  0  0  0
  7  8  2  0  0  0
  8  9  1  0  0  0
  8 39  1  0  0  0
  9 10  1  0  0  0
 10 11  2  0  0  0
 10 38  1  0  0  0
 11 12  1  0  0  0
 12 13  2  0  0  0
 13 14  1  0  0  0
 14 15  1  0  0  0
 14 38  2  0  0  0
 15 16  1  0  0  0
 15 43  1  0  0  0
 16 17  2  0  0  0
 16 18  1  0  0  0
 18 19  1  0  0  0
 18 20  1  0  0  0
 19 44  1  0  0  0
 20 21  2  0  0  0
 20 37  1  0  0  0
 21 22  1  0  0  0
 22 23  1  0  0  0
 22 35  2  0  0  0
 23 24  1  0  0  0
 24 25  1  0  0  0
 25 26  1  0  0  0
 25 45  1  0  0  0
 26 27  2  0  0  0
 26 28  1  0  0  0
 28 29  1  0  0  0
 28 34  1  0  0  0
 29 30  1  0  0  0
 30 31  1  0  0  0
 31 32  1  0  0  0
 31 33  1  0  0  0
 32 46  1  0  0  0
 33 34  1  0  0  0
 35 36  1  0  0  0
 36 37  2  0  0  0
 39 40  2  0  0  0
M  END
>  <AUTHOR>
    GENERATED BY OPEN BABEL 2.3.2

>  <CHROM.1>
176.96207929,86.77705391,98.70669963,-31.64322511,-70.14660844,-78.75976728
-79.55485458,-61.60658183,-122.95557510,-72.84649978,-55.02122726,84.75403426
41.71128528,-72.00333283,-10.17503161,10.77615974,71.59234797,1.64774728
-1.40224044,2.41236849

>  <COMPND>
    UNNAMED

>  <MASTER>
        0    0    0    0    0    0    0    0   74    0   74    0

>  <Name>
ligands/mol9.pdb

>  <RI>
3.2274e+07

>  <Rbt.Current_Directory>
/home/rochoa/Projects/OCONDOR

>  <Rbt.Executable>
rbdock ($Id: //depot/dev/client3/rdock/2013.1/src/exe/rbdock.cxx#4 $)

>  <Rbt.Library>
libRbt.so (2013.1, Build901 2013/11/27)

>  <Rbt.Parameter_File>
dock.prm

>  <Rbt.Receptor>
rdock.prm

>  <SCORE>
-12.4614

>  <SCORE.INTER>
-9.90362

>  <SCORE.INTER.CONST>
1

>  <SCORE.INTER.POLAR>
-1.02032

>  <SCORE.INTER.REPUL>
0

>  <SCORE.INTER.ROT>
13

>  <SCORE.INTER.VDW>
-24.8345

>  <SCORE.INTER.norm>
-0.24759

>  <SCORE.INTRA>
-2.55779

>  <SCORE.INTRA.DIHEDRAL>
-0.524776

>  <SCORE.INTRA.DIHEDRAL.0>
10.0128

>  <SCORE.INTRA.POLAR>
0.000487999

>  <SCORE.INTRA.POLAR.0>
-0.000487999

>  <SCORE.INTRA.REPUL>
0

>  <SCORE.INTRA.REPUL.0>
0

>  <SCORE.INTRA.VDW>
-2.29706

>  <SCORE.INTRA.VDW.0>
-4.23318

>  <SCORE.INTRA.norm>
-0.0639447

>  <SCORE.RESTR>
0

>  <SCORE.RESTR.CAVITY>
0

>  <SCORE.RESTR.norm>
0

>  <SCORE.SYSTEM>
0

>  <SCORE.SYSTEM.CONST>
0

>  <SCORE.SYSTEM.DIHEDRAL>
0

>  <SCORE.SYSTEM.norm>
0

>  <SCORE.heavy>
40

>  <SCORE.norm>
-0.311535

$$$$
ligands/mol9.pdb
  rDOCK(R)          3D
libRbt.so/2013.1/901 2013/11/27
 46 49  0  0  0  0  0  0  0  0999 V2000
   -7.5869   17.2836   67.1661 N   0  0  0  0  0  0
   -8.0576   17.4268   68.7770 S   0  0  0  0  0  0
   -6.9209   17.0635   69.5854 O   0  0  0  0  0  0
   -8.7295   18.7030   68.9208 O   0  0  0  0  0  0
   -9.2740   16.1405   68.8901 C   0  0  0  0  0  0
  -10.5230   16.3862   69.4604 C   0  0  0  0  0  0
  -11.4740   15.3558   69.5172 C   0  0  0  0  0  0
  -11.1762   14.0639   69.0371 C   0  0  0  0  0  0
  -12.2047   12.9353   69.0996 C   0  0  0  0  0  0
  -11.6468   11.5183   69.0101 C   0  0  0  0  0  0
  -11.6682   10.8001   67.8037 C   0  0  0  0  0  0
  -11.3301    9.4460   67.7566 C   0  0  0  0  0  0
  -10.8555    8.8085   68.8987 C   0  0  0  0  0  0
  -10.6624    9.5480   70.0662 C   0  0  0  0  0  0
  -10.0115    8.9917   71.1839 N   0  0  0  0  0  0
  -10.3378    7.7326   71.6770 C   0  0  0  0  0  0
  -10.0506    6.6730   71.1210 O   0  0  0  0  0  0
  -11.1685    7.7518   72.9716 C   0  0  0  0  0  0
  -12.9093    8.0454   72.4890 S   0  0  0  0  0  0
  -10.9144    6.5357   73.8437 C   0  0  0  0  0  0
  -10.4698    6.5638   75.1733 C   0  0  0  0  0  0
  -10.2505    5.3730   75.8815 C   0  0  0  0  0  0
   -9.6731    5.4001   77.2698 C   0  0  0  0  0  0
   -8.2309    5.8940   77.3712 C   0  0  0  0  0  0
   -8.0862    7.1618   76.6783 N   0  0  0  0  0  0
   -7.0526    7.4125   75.8052 C   0  0  0  0  0  0
   -6.1894    6.5808   75.5469 O   0  0  0  0  0  0
   -7.1172    8.8079   75.1718 C   0  0  0  0  0  0
   -5.7312    9.3300   74.7662 C   0  0  0  0  0  0
   -5.1614    8.5761   73.5635 C   0  0  0  0  0  0
   -6.1147    8.5812   72.3704 C   0  0  0  0  0  0
   -6.1649    9.9027   71.8391 O   0  0  0  0  0  0
   -7.5286    8.1383   72.7414 C   0  0  0  0  0  0
   -8.0739    8.8628   73.9754 C   0  0  0  0  0  0
  -10.5077    4.1800   75.2174 C   0  0  0  0  0  0
  -10.9240    4.1084   73.9328 N   0  0  0  0  0  0
  -11.0835    5.2736   73.2726 C   0  0  0  0  0  0
  -11.0634   10.8910   70.1252 C   0  0  0  0  0  0
   -9.8832   13.8340   68.5389 C   0  0  0  0  0  0
   -8.9487   14.8686   68.4324 C   0  0  0  0  0  0
   -6.9040   18.0071   66.9394 H   0  0  0  0  0  0
   -7.3124   16.3439   66.8694 H   0  0  0  0  0  0
   -9.6531    9.6465   71.8694 H   0  0  0  0  0  0
  -12.7052    9.2884   72.0282 H   0  0  0  0  0  0
   -8.7881    7.8778   76.8136 H   0  0  0  0  0  0
   -5.2578   10.1363   71.5721 H   0  0  0  0  0  0
  1  2  1  0  0  0
  1 41  1  0  0  0
  1 42  1  0  0  0
  2  3  2  0  0  0
  2  4  2  0  0  0
  2  5  1  0  0  0
  5  6  2  0  0  0
  5 40  1  0  0  0
  6  7  1  0  0  0
  7  8  2  0  0  0
  8  9  1  0  0  0
  8 39  1  0  0  0
  9 10  1  0  0  0
 10 11  2  0  0  0
 10 38  1  0  0  0
 11 12  1  0  0  0
 12 13  2  0  0  0
 13 14  1  0  0  0
 14 15  1  0  0  0
 14 38  2  0  0  0
 15 16  1  0  0  0
 15 43  1  0  0  0
 16 17  2  0  0  0
 16 18  1  0  0  0
 18 19  1  0  0  0
 18 20  1  0  0  0
 19 44  1  0  0  0
 20 21  2  0  0  0
 20 37  1  0  0  0
 21 22  1  0  0  0
 22 23  1  0  0  0
 22 35  2  0  0  0
 23 24  1  0  0  0
 24 25  1  0  0  0
 25 26  1  0  0  0
 25 45  1  0  0  0
 26 27  2  0  0  0
 26 28  1  0  0  0
 28 29  1  0  0  0
 28 34  1  0  0  0
 29 30  1  0  0  0
 30 31  1  0  0  0
 31 32  1  0  0  0
 31 33  1  0  0  0
 32 46  1  0  0  0
 33 34  1  0  0  0
 35 36  1  0  0  0
 36 37  2  0  0  0
 39 40  2  0  0  0
M  END
>  <AUTHOR>
    GENERATED BY OPEN BABEL 2.3.2

>  <CHROM.1>
-68.84569851,-131.48053781,-159.79295644,-99.39057778,-47.36431578,72.52507223
80.93634483,-65.97257238,122.54404147,-66.24136837,50.90557472,-133.06400836
153.02632407,59.63903907,-9.38145263,10.24516666,71.80260506,-1.56458260
0.55351803,2.57005322

>  <COMPND>
    UNNAMED

>  <MASTER>
        0    0    0    0    0    0    0    0   74    0   74    0

>  <Name>
ligands/mol9.pdb

>  <RI>
3.2274e+07

>  <Rbt.Current_Directory>
/home/rochoa/Projects/OCONDOR

>  <Rbt.Executable>
rbdock ($Id: //depot/dev/client3/rdock/2013.1/src/exe/rbdock.cxx#4 $)

>  <Rbt.Library>
libRbt.so (2013.1, Build901 2013/11/27)

>  <Rbt.Parameter_File>
dock.prm

>  <Rbt.Receptor>
rdock.prm

>  <SCORE>
-8.57226

>  <SCORE.INTER>
-6.11799

>  <SCORE.INTER.CONST>
1

>  <SCORE.INTER.POLAR>
-0.760089

>  <SCORE.INTER.REPUL>
0.0564555

>  <SCORE.INTER.ROT>
13

>  <SCORE.INTER.VDW>
-22.216

>  <SCORE.INTER.norm>
-0.15295

>  <SCORE.INTRA>
-2.45427

>  <SCORE.INTRA.DIHEDRAL>
-0.312667

>  <SCORE.INTRA.DIHEDRAL.0>
10.0128

>  <SCORE.INTRA.POLAR>
0.000487999

>  <SCORE.INTRA.POLAR.0>
-0.000487999

>  <SCORE.INTRA.REPUL>
0

>  <SCORE.INTRA.REPUL.0>
0

>  <SCORE.INTRA.VDW>
-2.2996

>  <SCORE.INTRA.VDW.0>
-4.23318

>  <SCORE.INTRA.norm>
-0.0613568

>  <SCORE.RESTR>
0

>  <SCORE.RESTR.CAVITY>
0

>  <SCORE.RESTR.norm>
0

>  <SCORE.SYSTEM>
0

>  <SCORE.SYSTEM.CONST>
0

>  <SCORE.SYSTEM.DIHEDRAL>
0

>  <SCORE.SYSTEM.norm>
0

>  <SCORE.heavy>
40

>  <SCORE.norm>
-0.214307

$$$$
ligands/mol9.pdb
  rDOCK(R)          3D
libRbt.so/2013.1/901 2013/11/27
 46 49  0  0  0  0  0  0  0  0999 V2000
   -8.2188    3.3163   76.5145 N   0  0  0  0  0  0
   -9.8906    3.2481   76.3210 S   0  0  0  0  0  0
  -10.2961    1.8945   76.6055 O   0  0  0  0  0  0
  -10.4550    4.3851   77.0207 O   0  0  0  0  0  0
  -10.0419    3.5355   74.5770 C   0  0  0  0  0  0
  -11.0919    4.2989   74.0670 C   0  0  0  0  0  0
  -11.1748    4.5283   72.6850 C   0  0  0  0  0  0
  -10.2316    3.9710   71.7974 C   0  0  0  0  0  0
  -10.3176    4.2123   70.2908 C   0  0  0  0  0  0
  -10.1818    5.6628   69.8383 C   0  0  0  0  0  0
  -11.2547    6.3454   69.2429 C   0  0  0  0  0  0
  -11.0847    7.6043   68.6631 C   0  0  0  0  0  0
   -9.8597    8.2564   68.7654 C   0  0  0  0  0  0
   -8.8307    7.6700   69.5032 C   0  0  0  0  0  0
   -7.6452    8.3733   69.7902 N   0  0  0  0  0  0
   -7.4862    9.1044   70.9628 C   0  0  0  0  0  0
   -7.0422   10.2511   71.0117 O   0  0  0  0  0  0
   -7.8496    8.3369   72.2456 C   0  0  0  0  0  0
   -6.8206    9.0253   73.5935 S   0  0  0  0  0  0
   -9.3457    8.3038   72.4993 C   0  0  0  0  0  0
  -10.2945    9.1406   71.8944 C   0  0  0  0  0  0
  -11.6551    9.0337   72.2182 C   0  0  0  0  0  0
  -12.6580   10.0001   71.6507 C   0  0  0  0  0  0
  -12.3217   10.5592   70.2693 C   0  0  0  0  0  0
  -12.1895   12.0038   70.3326 N   0  0  0  0  0  0
  -11.1435   12.6762   69.7432 C   0  0  0  0  0  0
  -10.2577   12.1030   69.1185 O   0  0  0  0  0  0
  -11.2246   14.1980   69.9171 C   0  0  0  0  0  0
   -9.9212   14.9023   69.5132 C   0  0  0  0  0  0
   -9.6954   14.8722   68.0007 C   0  0  0  0  0  0
  -10.8825   15.4393   67.2252 C   0  0  0  0  0  0
  -10.9337   16.8466   67.4448 O   0  0  0  0  0  0
  -12.2139   14.8198   67.6458 C   0  0  0  0  0  0
  -12.4114   14.8097   69.1643 C   0  0  0  0  0  0
  -12.0159    8.0607   73.1419 C   0  0  0  0  0  0
  -11.1321    7.2433   73.7579 N   0  0  0  0  0  0
   -9.8287    7.4046   73.4511 C   0  0  0  0  0  0
   -8.9864    6.3785   70.0286 C   0  0  0  0  0  0
   -9.2323    3.1460   72.3394 C   0  0  0  0  0  0
   -9.1140    2.9554   73.7194 C   0  0  0  0  0  0
   -7.9850    3.3170   77.5078 H   0  0  0  0  0  0
   -7.6836    2.6427   75.9610 H   0  0  0  0  0  0
   -7.1165    8.7102   68.9938 H   0  0  0  0  0  0
   -7.0088    7.9973   74.4343 H   0  0  0  0  0  0
  -12.9092   12.5425   70.7970 H   0  0  0  0  0  0
  -10.9984   16.9819   68.4072 H   0  0  0  0  0  0
  1  2  1  0  0  0
  1 41  1  0  0  0
  1 42  1  0  0  0
  2  3  2  0  0  0
  2  4  2  0  0  0
  2  5  1  0  0  0
  5  6  2  0  0  0
  5 40  1  0  0  0
  6  7  1  0  0  0
  7  8  2  0  0  0
  8  9  1  0  0  0
  8 39  1  0  0  0
  9 10  1  0  0  0
 10 11  2  0  0  0
 10 38  1  0  0  0
 11 12  1  0  0  0
 12 13  2  0  0  0
 13 14  1  0  0  0
 14 15  1  0  0  0
 14 38  2  0  0  0
 15 16  1  0  0  0
 15 43  1  0  0  0
 16 17  2  0  0  0
 16 18  1  0  0  0
 18 19  1  0  0  0
 18 20  1  0  0  0
 19 44  1  0  0  0
 20 21  2  0  0  0
 20 37  1  0  0  0
 21 22  1  0  0  0
 22 23  1  0  0  0
 22 35  2  0  0  0
 23 24  1  0  0  0
 24 25  1  0  0  0
 25 26  1  0  0  0
 25 45  1  0  0  0
 26 27  2  0  0  0
 26 28  1  0  0  0
 28 29  1  0  0  0
 28 34  1  0  0  0
 29 30  1  0  0  0
 30 31  1  0  0  0
 31 32  1  0  0  0
 31 33  1  0  0  0
 32 46  1  0  0  0
 33 34  1  0  0  0
 35 36  1  0  0  0
 36 37  2  0  0  0
 39 40  2  0  0  0
M  END
>  <AUTHOR>
    GENERATED BY OPEN BABEL 2.3.2

>  <CHROM.1>
-75.37693802,-142.54651941,62.27118643,-113.82763494,92.68064658,-133.07296333
151.02537467,-163.07716556,-16.45806713,30.40179612,-119.23764674,133.82214660
168.21559061,-57.25732067,-10.05500272,8.39006574,71.66532945,-1.35533680
-1.11483141,-0.33793815

>  <COMPND>
    UNNAMED

>  <MASTER>
        0    0    0    0    0    0    0    0   74    0   74    0

>  <Name>
ligands/mol9.pdb

>  <RI>
3.2274e+07

>  <Rbt.Current_Directory>
/home/rochoa/Projects/OCONDOR

>  <Rbt.Executable>
rbdock ($Id: //depot/dev/client3/rdock/2013.1/src/exe/rbdock.cxx#4 $)

>  <Rbt.Library>
libRbt.so (2013.1, Build901 2013/11/27)

>  <Rbt.Parameter_File>
dock.prm

>  <Rbt.Receptor>
rdock.prm

>  <SCORE>
-4.64733

>  <SCORE.INTER>
-3.7503

>  <SCORE.INTER.CONST>
1

>  <SCORE.INTER.POLAR>
0

>  <SCORE.INTER.REPUL>
0.00186525

>  <SCORE.INTER.ROT>
13

>  <SCORE.INTER.VDW>
-22.1596

>  <SCORE.INTER.norm>
-0.0937575

>  <SCORE.INTRA>
-0.897027

>  <SCORE.INTRA.DIHEDRAL>
4.26323

>  <SCORE.INTRA.DIHEDRAL.0>
10.0128

>  <SCORE.INTRA.POLAR>
0.000487999

>  <SCORE.INTRA.POLAR.0>
-0.000487999

>  <SCORE.INTRA.REPUL>
0

>  <SCORE.INTRA.REPUL.0>
0

>  <SCORE.INTRA.VDW>
-3.0303

>  <SCORE.INTRA.VDW.0>
-4.23318

>  <SCORE.INTRA.norm>
-0.0224257

>  <SCORE.RESTR>
0

>  <SCORE.RESTR.CAVITY>
0

>  <SCORE.RESTR.norm>
0

>  <SCORE.SYSTEM>
0

>  <SCORE.SYSTEM.CONST>
0

>  <SCORE.SYSTEM.DIHEDRAL>
0

>  <SCORE.SYSTEM.norm>
0

>  <SCORE.heavy>
40

>  <SCORE.norm>
-0.116183

$$$$
ligands/mol9.pdb
  rDOCK(R)          3D
libRbt.so/2013.1/901 2013/11/27
 46 49  0  0  0  0  0  0  0  0999 V2000
   -4.2672   13.3548   67.3134 N   0  0  0  0  0  0
   -5.6523   14.0488   67.9742 S   0  0  0  0  0  0
   -5.6124   13.8066   69.3945 O   0  0  0  0  0  0
   -5.7738   15.3839   67.4230 O   0  0  0  0  0  0
   -6.9163   13.0321   67.2562 C   0  0  0  0  0  0
   -8.2520   13.4337   67.2732 C   0  0  0  0  0  0
   -9.2283   12.6196   66.6786 C   0  0  0  0  0  0
   -8.8863   11.3838   66.0923 C   0  0  0  0  0  0
   -9.9441   10.4895   65.4469 C   0  0  0  0  0  0
   -9.8452    9.0012   65.7666 C   0  0  0  0  0  0
   -8.8188    8.2062   65.2316 C   0  0  0  0  0  0
   -8.8270    6.8167   65.3702 C   0  0  0  0  0  0
   -9.8063    6.2016   66.1442 C   0  0  0  0  0  0
  -10.7347    6.9884   66.8268 C   0  0  0  0  0  0
  -11.6205    6.4246   67.7648 N   0  0  0  0  0  0
  -11.2800    6.2768   69.1054 C   0  0  0  0  0  0
  -10.8347    5.2411   69.5989 O   0  0  0  0  0  0
  -11.5694    7.5120   69.9755 C   0  0  0  0  0  0
  -12.5783    6.9460   71.3937 S   0  0  0  0  0  0
  -10.3115    8.2885   70.3198 C   0  0  0  0  0  0
   -9.5224    8.0977   71.4632 C   0  0  0  0  0  0
   -8.3858    8.8878   71.6901 C   0  0  0  0  0  0
   -7.6010    8.7562   72.9662 C   0  0  0  0  0  0
   -7.3556    7.3249   73.4410 C   0  0  0  0  0  0
   -8.5168    6.8296   74.1584 N   0  0  0  0  0  0
   -8.5912    6.8293   75.5325 C   0  0  0  0  0  0
   -7.6869    7.2541   76.2433 O   0  0  0  0  0  0
   -9.9208    6.2842   76.0688 C   0  0  0  0  0  0
  -10.2566    4.8985   75.4987 C   0  0  0  0  0  0
   -9.3391    3.8089   76.0561 C   0  0  0  0  0  0
   -9.3319    3.7813   77.5830 C   0  0  0  0  0  0
  -10.5964    3.3001   78.0311 O   0  0  0  0  0  0
   -9.0742    5.1554   78.1981 C   0  0  0  0  0  0
   -9.9629    6.2502   77.6007 C   0  0  0  0  0  0
   -8.0730    9.8444   70.7323 C   0  0  0  0  0  0
   -8.8139   10.0696   69.6237 N   0  0  0  0  0  0
   -9.9220    9.3180   69.4619 C   0  0  0  0  0  0
  -10.7606    8.3776   66.6329 C   0  0  0  0  0  0
   -7.5434   10.9775   66.1608 C   0  0  0  0  0  0
   -6.5582   11.8065   66.7059 C   0  0  0  0  0  0
   -4.3339   13.3511   66.2952 H   0  0  0  0  0  0
   -3.3798   13.7163   67.6715 H   0  0  0  0  0  0
  -12.2833    5.7458   67.4082 H   0  0  0  0  0  0
  -12.7658    8.1689   71.9119 H   0  0  0  0  0  0
   -9.3167    6.5035   73.6317 H   0  0  0  0  0  0
  -10.7273    2.4244   77.6253 H   0  0  0  0  0  0
  1  2  1  0  0  0
  1 41  1  0  0  0
  1 42  1  0  0  0
  2  3  2  0  0  0
  2  4  2  0  0  0
  2  5  1  0  0  0
  5  6  2  0  0  0
  5 40  1  0  0  0
  6  7  1  0  0  0
  7  8  2  0  0  0
  8  9  1  0  0  0
  8 39  1  0  0  0
  9 10  1  0  0  0
 10 11  2  0  0  0
 10 38  1  0  0  0
 11 12  1  0  0  0
 12 13  2  0  0  0
 13 14  1  0  0  0
 14 15  1  0  0  0
 14 38  2  0  0  0
 15 16  1  0  0  0
 15 43  1  0  0  0
 16 17  2  0  0  0
 16 18  1  0  0  0
 18 19  1  0  0  0
 18 20  1  0  0  0
 19 44  1  0  0  0
 20 21  2  0  0  0
 20 37  1  0  0  0
 21 22  1  0  0  0
 22 23  1  0  0  0
 22 35  2  0  0  0
 23 24  1  0  0  0
 24 25  1  0  0  0
 25 26  1  0  0  0
 25 45  1  0  0  0
 26 27  2  0  0  0
 26 28  1  0  0  0
 28 29  1  0  0  0
 28 34  1  0  0  0
 29 30  1  0  0  0
 30 31  1  0  0  0
 31 32  1  0  0  0
 31 33  1  0  0  0
 32 46  1  0  0  0
 33 34  1  0  0  0
 35 36  1  0  0  0
 36 37  2  0  0  0
 39 40  2  0  0  0
M  END
>  <AUTHOR>
    GENERATED BY OPEN BABEL 2.3.2

>  <CHROM.1>
169.72359664,-164.68854683,-136.39972284,-71.69324259,87.89785965,-96.32017716
126.95873190,-175.82145417,-91.77058812,43.11787297,-82.11408641,-98.48666219
53.13856402,57.07563155,-8.94167161,8.69297911,70.46519950,-1.23845700,0.88498082
1.95439282

>  <COMPND>
    UNNAMED

>  <MASTER>
        0    0    0    0    0    0    0    0   74    0   74    0

>  <Name>
ligands/mol9.pdb

>  <RI>
3.2274e+07

>  <Rbt.Current_Directory>
/home/rochoa/Projects/OCONDOR

>  <Rbt.Executable>
rbdock ($Id: //depot/dev/client3/rdock/2013.1/src/exe/rbdock.cxx#4 $)

>  <Rbt.Library>
libRbt.so (2013.1, Build901 2013/11/27)

>  <Rbt.Parameter_File>
dock.prm

>  <Rbt.Receptor>
rdock.prm

>  <SCORE>
-5.1134

>  <SCORE.INTER>
-3.14389

>  <SCORE.INTER.CONST>
1

>  <SCORE.INTER.POLAR>
-0.44912

>  <SCORE.INTER.REPUL>
0.00137944

>  <SCORE.INTER.ROT>
13

>  <SCORE.INTER.VDW>
-20.0238

>  <SCORE.INTER.norm>
-0.0785972

>  <SCORE.INTRA>
-1.96951

>  <SCORE.INTRA.DIHEDRAL>
-0.357744

>  <SCORE.INTRA.DIHEDRAL.0>
10.0128

>  <SCORE.INTRA.POLAR>
0.000487999

>  <SCORE.INTRA.POLAR.0>
-0.000487999

>  <SCORE.INTRA.REPUL>
0

>  <SCORE.INTRA.REPUL.0>
0

>  <SCORE.INTRA.VDW>
-1.7923

>  <SCORE.INTRA.VDW.0>
-4.23318

>  <SCORE.INTRA.norm>
-0.0492378

>  <SCORE.RESTR>
0

>  <SCORE.RESTR.CAVITY>
0

>  <SCORE.RESTR.norm>
0

>  <SCORE.SYSTEM>
0

>  <SCORE.SYSTEM.CONST>
0

>  <SCORE.SYSTEM.DIHEDRAL>
0

>  <SCORE.SYSTEM.norm>
0

>  <SCORE.heavy>
40

>  <SCORE.norm>
-0.127835

$$$$
