ligands/mol5.pdb
  rDOCK(R)          3D
libRbt.so/2013.1/901 2013/11/27
 46 49  0  0  0  0  0  0  0  0999 V2000
   -7.6085   10.0929   76.3676 N   0  0  0  0  0  0
   -6.8458    8.9152   75.4092 S   0  0  0  0  0  0
   -5.9964    9.5865   74.4317 O   0  0  0  0  0  0
   -6.3355    7.9092   76.2928 O   0  0  0  0  0  0
   -8.2360    8.2007   74.5489 C   0  0  0  0  0  0
   -9.0576    7.2527   75.1611 C   0  0  0  0  0  0
  -10.1197    6.6986   74.4390 C   0  0  0  0  0  0
  -10.3785    7.0887   73.1149 C   0  0  0  0  0  0
  -11.4738    6.4054   72.3081 C   0  0  0  0  0  0
  -12.8238    7.0992   72.3404 C   0  0  0  0  0  0
  -14.0115    6.3939   72.0966 C   0  0  0  0  0  0
  -15.2393    7.0455   72.0913 C   0  0  0  0  0  0
  -15.2960    8.4199   72.2747 C   0  0  0  0  0  0
  -14.1285    9.1749   72.4191 C   0  0  0  0  0  0
  -14.1514   10.5979   72.4403 N   0  0  0  0  0  0
  -13.3873   11.3787   71.5848 C   0  0  0  0  0  0
  -12.5421   10.9365   70.8181 O   0  0  0  0  0  0
  -13.6600   12.7341   71.6941 N   0  0  0  0  0  0
  -13.0414   13.7407   70.9789 C   0  0  0  0  0  0
  -12.0938   13.4875   70.0623 C   0  0  0  0  0  0
  -11.3929   14.5908   69.2912 C   0  0  0  0  0  0
  -10.0005   14.8782   69.8832 C   0  0  0  0  0  0
   -8.8963   15.0517   68.8302 C   0  0  0  0  0  0
   -9.1902   14.3364   67.5904 N   0  0  0  0  0  0
   -9.8946   14.8834   66.5450 C   0  0  0  0  0  0
  -10.3608   16.0214   66.5901 O   0  0  0  0  0  0
  -10.1420   13.9246   65.3555 C   0  0  0  0  0  0
  -10.5500   12.5079   65.7954 C   0  0  0  0  0  0
  -11.9929   12.4070   66.3042 C   0  0  0  0  0  0
  -13.0328   13.0941   65.4206 C   0  0  0  0  0  0
  -13.3777   12.2424   64.3338 O   0  0  0  0  0  0
  -12.5764   14.4643   64.8955 C   0  0  0  0  0  0
  -11.1598   14.4324   64.3275 C   0  0  0  0  0  0
  -12.2657   15.8518   69.2713 C   0  0  0  0  0  0
  -12.2731   16.5857   68.2838 O   0  0  0  0  0  0
  -12.9383   16.1749   70.4223 N   0  0  0  0  0  0
  -13.3016   15.1994   71.1899 C   0  0  0  0  0  0
  -12.8984    8.5009   72.5022 C   0  0  0  0  0  0
   -9.5598    8.0656   72.5261 C   0  0  0  0  0  0
   -8.4911    8.6230   73.2369 C   0  0  0  0  0  0
   -7.6460   11.0330   75.9690 H   0  0  0  0  0  0
   -8.5018    9.8085   76.7873 H   0  0  0  0  0  0
  -14.4832   11.0366   73.2878 H   0  0  0  0  0  0
  -14.3765   13.0106   72.3487 H   0  0  0  0  0  0
   -8.7353   13.4358   67.4656 H   0  0  0  0  0  0
  -14.0063   12.6985   63.7565 H   0  0  0  0  0  0
  1  2  1  0  0  0
  1 41  1  0  0  0
  1 42  1  0  0  0
  2  3  2  0  0  0
  2  4  2  0  0  0
  2  5  1  0  0  0
  5  6  2  0  0  0
  5 40  1  0  0  0
  6  7  1  0  0  0
  7  8  2  0  0  0
  8  9  1  0  0  0
  8 39  1  0  0  0
  9 10  1  0  0  0
 10 11  2  0  0  0
 10 38  1  0  0  0
 11 12  1  0  0  0
 12 13  2  0  0  0
 13 14  1  0  0  0
 14 15  1  0  0  0
 14 38  2  0  0  0
 15 16  1  0  0  0
 15 43  1  0  0  0
 16 17  2  0  0  0
 16 18  1  0  0  0
 18 19  1  0  0  0
 18 44  1  0  0  0
 19 20  2  0  0  0
 19 37  1  0  0  0
 20 21  1  0  0  0
 21 22  1  0  0  0
 21 34  1  0  0  0
 22 23  1  0  0  0
 23 24  1  0  0  0
 24 25  1  0  0  0
 24 45  1  0  0  0
 25 26  2  0  0  0
 25 27  1  0  0  0
 27 28  1  0  0  0
 27 33  1  0  0  0
 28 29  1  0  0  0
 29 30  1  0  0  0
 30 31  1  0  0  0
 30 32  1  0  0  0
 31 46  1  0  0  0
 32 33  1  0  0  0
 34 35  2  0  0  0
 34 36  1  0  0  0
 36 37  2  0  0  0
 39 40  2  0  0  0
M  END
>  <AUTHOR>
    GENERATED BY OPEN BABEL 2.3.2

>  <CHROM.1>
19.86686223,-80.05853480,94.10156790,-155.97988368,-125.40125646,-6.64822731
0.94795600,136.32721895,-26.54134536,89.00431487,42.69966868,-177.48472226
-11.07568657,11.36104254,70.70498066,-1.31385579,-0.42548989,-0.75707226

>  <COMPND>
    UNNAMED

>  <MASTER>
        0    0    0    0    0    0    0    0   73    0   73    0

>  <Name>
ligands/mol5.pdb

>  <RI>
1.78028e+07

>  <Rbt.Current_Directory>
/home/rochoa/Projects/OCONDOR

>  <Rbt.Executable>
rbdock ($Id: //depot/dev/client3/rdock/2013.1/src/exe/rbdock.cxx#4 $)

>  <Rbt.Library>
libRbt.so (2013.1, Build901 2013/11/27)

>  <Rbt.Parameter_File>
dock.prm

>  <Rbt.Receptor>
rdock.prm

>  <SCORE>
-26.3638

>  <SCORE.INTER>
-27.5922

>  <SCORE.INTER.CONST>
1

>  <SCORE.INTER.POLAR>
-2.05461

>  <SCORE.INTER.REPUL>
0.0788673

>  <SCORE.INTER.ROT>
11

>  <SCORE.INTER.VDW>
-37.4009

>  <SCORE.INTER.norm>
-0.689806

>  <SCORE.INTRA>
1.22846

>  <SCORE.INTRA.DIHEDRAL>
6.18646

>  <SCORE.INTRA.DIHEDRAL.0>
8.44371

>  <SCORE.INTRA.POLAR>
0

>  <SCORE.INTRA.POLAR.0>
0

>  <SCORE.INTRA.REPUL>
0

>  <SCORE.INTRA.REPUL.0>
0

>  <SCORE.INTRA.VDW>
-1.86477

>  <SCORE.INTRA.VDW.0>
-2.13059

>  <SCORE.INTRA.norm>
0.0307115

>  <SCORE.RESTR>
0

>  <SCORE.RESTR.CAVITY>
0

>  <SCORE.RESTR.norm>
0

>  <SCORE.SYSTEM>
0

>  <SCORE.SYSTEM.CONST>
0

>  <SCORE.SYSTEM.DIHEDRAL>
0

>  <SCORE.SYSTEM.norm>
0

>  <SCORE.heavy>
40

>  <SCORE.norm>
-0.659094

$$$$
ligands/mol5.pdb
  rDOCK(R)          3D
libRbt.so/2013.1/901 2013/11/27
 46 49  0  0  0  0  0  0  0  0999 V2000
  -10.3190   10.5525   66.1527 N   0  0  0  0  0  0
   -9.3352    9.1684   66.2134 S   0  0  0  0  0  0
   -9.5856    8.3645   65.0225 O   0  0  0  0  0  0
   -8.0165    9.5963   66.5755 O   0  0  0  0  0  0
  -10.0133    8.3106   67.6233 C   0  0  0  0  0  0
  -10.8900    7.2360   67.4647 C   0  0  0  0  0  0
  -11.4192    6.6110   68.5988 C   0  0  0  0  0  0
  -11.0740    7.0395   69.8909 C   0  0  0  0  0  0
  -11.7340    6.4171   71.1134 C   0  0  0  0  0  0
  -12.9364    7.1731   71.6497 C   0  0  0  0  0  0
  -14.1841    6.5489   71.7945 C   0  0  0  0  0  0
  -15.2881    7.2596   72.2508 C   0  0  0  0  0  0
  -15.1774    8.6169   72.5175 C   0  0  0  0  0  0
  -13.9789    9.2992   72.2895 C   0  0  0  0  0  0
  -13.8885   10.7158   72.3952 N   0  0  0  0  0  0
  -13.0389   11.4796   71.6077 C   0  0  0  0  0  0
  -11.9764   11.0792   71.1511 O   0  0  0  0  0  0
  -13.5029   12.7696   71.3977 N   0  0  0  0  0  0
  -12.8576   13.7493   70.6689 C   0  0  0  0  0  0
  -11.6551   13.5470   70.1076 C   0  0  0  0  0  0
  -10.9301   14.6277   69.3268 C   0  0  0  0  0  0
   -9.8334   15.2858   70.1846 C   0  0  0  0  0  0
   -8.4678   15.3819   69.4890 C   0  0  0  0  0  0
   -8.5617   15.9695   68.1544 N   0  0  0  0  0  0
   -8.9455   17.2679   67.9198 C   0  0  0  0  0  0
   -9.2711   18.0317   68.8282 O   0  0  0  0  0  0
   -9.0345   17.6596   66.4252 C   0  0  0  0  0  0
   -9.8276   18.9560   66.1859 C   0  0  0  0  0  0
   -9.0682   20.2297   66.5758 C   0  0  0  0  0  0
   -7.6272   20.2951   66.0727 C   0  0  0  0  0  0
   -7.6112   20.7249   64.7160 O   0  0  0  0  0  0
   -6.8709   18.9651   66.2157 C   0  0  0  0  0  0
   -7.6812   17.7728   65.7135 C   0  0  0  0  0  0
  -11.9355   15.6637   68.8092 C   0  0  0  0  0  0
  -11.7601   16.2081   67.7198 O   0  0  0  0  0  0
  -12.9581   16.0281   69.6477 N   0  0  0  0  0  0
  -13.3825   15.1389   70.4856 C   0  0  0  0  0  0
  -12.8478    8.5601   71.9039 C   0  0  0  0  0  0
  -10.1673    8.1023   70.0306 C   0  0  0  0  0  0
   -9.6357    8.7387   68.9034 C   0  0  0  0  0  0
  -10.1075   11.2146   65.4038 H   0  0  0  0  0  0
  -11.3269   10.3813   66.2524 H   0  0  0  0  0  0
  -14.2095   11.1305   73.2589 H   0  0  0  0  0  0
  -14.3922   13.0139   71.8076 H   0  0  0  0  0  0
   -8.2009   15.4115   67.3849 H   0  0  0  0  0  0
   -6.6951   20.7886   64.4110 H   0  0  0  0  0  0
  1  2  1  0  0  0
  1 41  1  0  0  0
  1 42  1  0  0  0
  2  3  2  0  0  0
  2  4  2  0  0  0
  2  5  1  0  0  0
  5  6  2  0  0  0
  5 40  1  0  0  0
  6  7  1  0  0  0
  7  8  2  0  0  0
  8  9  1  0  0  0
  8 39  1  0  0  0
  9 10  1  0  0  0
 10 11  2  0  0  0
 10 38  1  0  0  0
 11 12  1  0  0  0
 12 13  2  0  0  0
 13 14  1  0  0  0
 14 15  1  0  0  0
 14 38  2  0  0  0
 15 16  1  0  0  0
 15 43  1  0  0  0
 16 17  2  0  0  0
 16 18  1  0  0  0
 18 19  1  0  0  0
 18 44  1  0  0  0
 19 20  2  0  0  0
 19 37  1  0  0  0
 20 21  1  0  0  0
 21 22  1  0  0  0
 21 34  1  0  0  0
 22 23  1  0  0  0
 23 24  1  0  0  0
 24 25  1  0  0  0
 24 45  1  0  0  0
 25 26  2  0  0  0
 25 27  1  0  0  0
 27 28  1  0  0  0
 27 33  1  0  0  0
 28 29  1  0  0  0
 29 30  1  0  0  0
 30 31  1  0  0  0
 30 32  1  0  0  0
 31 46  1  0  0  0
 32 33  1  0  0  0
 34 35  2  0  0  0
 34 36  1  0  0  0
 36 37  2  0  0  0
 39 40  2  0  0  0
M  END
>  <AUTHOR>
    GENERATED BY OPEN BABEL 2.3.2

>  <CHROM.1>
-66.16751138,100.71264778,-94.94993409,123.79209436,-147.20180861,-29.20613250
-2.10803782,130.74966267,50.37037894,65.15096710,163.87977736,178.40333068
-10.81054573,12.63501437,68.81601386,-2.06207548,0.85061862,0.05399721

>  <COMPND>
    UNNAMED

>  <MASTER>
        0    0    0    0    0    0    0    0   73    0   73    0

>  <Name>
ligands/mol5.pdb

>  <RI>
1.78028e+07

>  <Rbt.Current_Directory>
/home/rochoa/Projects/OCONDOR

>  <Rbt.Executable>
rbdock ($Id: //depot/dev/client3/rdock/2013.1/src/exe/rbdock.cxx#4 $)

>  <Rbt.Library>
libRbt.so (2013.1, Build901 2013/11/27)

>  <Rbt.Parameter_File>
dock.prm

>  <Rbt.Receptor>
rdock.prm

>  <SCORE>
-15.074

>  <SCORE.INTER>
-14.5768

>  <SCORE.INTER.CONST>
1

>  <SCORE.INTER.POLAR>
0

>  <SCORE.INTER.REPUL>
0.0188017

>  <SCORE.INTER.ROT>
11

>  <SCORE.INTER.VDW>
-31.0708

>  <SCORE.INTER.norm>
-0.36442

>  <SCORE.INTRA>
-0.497214

>  <SCORE.INTRA.DIHEDRAL>
2.54199

>  <SCORE.INTRA.DIHEDRAL.0>
8.44371

>  <SCORE.INTRA.POLAR>
0

>  <SCORE.INTRA.POLAR.0>
0

>  <SCORE.INTRA.REPUL>
0

>  <SCORE.INTRA.REPUL.0>
0

>  <SCORE.INTRA.VDW>
-1.76821

>  <SCORE.INTRA.VDW.0>
-2.13059

>  <SCORE.INTRA.norm>
-0.0124303

>  <SCORE.RESTR>
0

>  <SCORE.RESTR.CAVITY>
0

>  <SCORE.RESTR.norm>
0

>  <SCORE.SYSTEM>
0

>  <SCORE.SYSTEM.CONST>
0

>  <SCORE.SYSTEM.DIHEDRAL>
0

>  <SCORE.SYSTEM.norm>
0

>  <SCORE.heavy>
40

>  <SCORE.norm>
-0.37685

$$$$
ligands/mol5.pdb
  rDOCK(R)          3D
libRbt.so/2013.1/901 2013/11/27
 46 49  0  0  0  0  0  0  0  0999 V2000
  -13.4340   12.3674   63.7671 N   0  0  0  0  0  0
  -12.7653   13.5183   64.8233 S   0  0  0  0  0  0
  -11.7978   14.3229   64.0858 O   0  0  0  0  0  0
  -13.8480   14.1123   65.5501 O   0  0  0  0  0  0
  -11.8751   12.4777   65.9670 C   0  0  0  0  0  0
  -11.0630   11.4354   65.5170 C   0  0  0  0  0  0
  -10.4057   10.6274   66.4506 C   0  0  0  0  0  0
  -10.5409   10.8551   67.8299 C   0  0  0  0  0  0
   -9.9019    9.9077   68.8357 C   0  0  0  0  0  0
  -10.6023    8.5701   68.9936 C   0  0  0  0  0  0
  -10.7661    7.7004   67.9053 C   0  0  0  0  0  0
  -11.4419    6.4946   68.0517 C   0  0  0  0  0  0
  -12.0122    6.1629   69.2725 C   0  0  0  0  0  0
  -11.9603    7.0466   70.3544 C   0  0  0  0  0  0
  -12.6783    6.8030   71.5590 N   0  0  0  0  0  0
  -12.1848    6.0108   72.5857 C   0  0  0  0  0  0
  -12.5710    4.8747   72.8264 O   0  0  0  0  0  0
  -11.2091    6.6434   73.3416 N   0  0  0  0  0  0
  -10.5567    6.1014   74.4315 C   0  0  0  0  0  0
   -9.5446    6.7340   75.0458 C   0  0  0  0  0  0
   -8.8077    6.1323   76.2281 C   0  0  0  0  0  0
   -7.4637    5.5227   75.7878 C   0  0  0  0  0  0
   -6.3762    5.5558   76.8715 C   0  0  0  0  0  0
   -6.1072    6.9098   77.3506 N   0  0  0  0  0  0
   -5.3845    7.8386   76.6411 C   0  0  0  0  0  0
   -4.8794    7.5836   75.5482 O   0  0  0  0  0  0
   -5.1704    9.1885   77.3672 C   0  0  0  0  0  0
   -4.4055   10.2177   76.5172 C   0  0  0  0  0  0
   -5.2433   10.8420   75.3950 C   0  0  0  0  0  0
   -6.6325   11.3146   75.8204 C   0  0  0  0  0  0
   -6.5370   12.5951   76.4342 O   0  0  0  0  0  0
   -7.3505   10.3306   76.7571 C   0  0  0  0  0  0
   -6.4544    9.8414   77.8921 C   0  0  0  0  0  0
   -9.6947    5.0925   76.9241 C   0  0  0  0  0  0
   -9.6441    4.9516   78.1454 O   0  0  0  0  0  0
  -10.4497    4.2693   76.1280 N   0  0  0  0  0  0
  -10.8515    4.7465   74.9949 C   0  0  0  0  0  0
  -11.2091    8.2267   70.2225 C   0  0  0  0  0  0
  -11.3378   11.9269   68.2627 C   0  0  0  0  0  0
  -12.0044   12.7386   67.3381 C   0  0  0  0  0  0
  -13.6121   11.4457   64.1706 H   0  0  0  0  0  0
  -14.2152   12.7008   63.1897 H   0  0  0  0  0  0
  -13.6779    6.9483   71.5320 H   0  0  0  0  0  0
  -10.9475    7.5793   73.0695 H   0  0  0  0  0  0
   -6.5929    7.1986   78.1958 H   0  0  0  0  0  0
   -6.1638   13.2261   75.8025 H   0  0  0  0  0  0
  1  2  1  0  0  0
  1 41  1  0  0  0
  1 42  1  0  0  0
  2  3  2  0  0  0
  2  4  2  0  0  0
  2  5  1  0  0  0
  5  6  2  0  0  0
  5 40  1  0  0  0
  6  7  1  0  0  0
  7  8  2  0  0  0
  8  9  1  0  0  0
  8 39  1  0  0  0
  9 10  1  0  0  0
 10 11  2  0  0  0
 10 38  1  0  0  0
 11 12  1  0  0  0
 12 13  2  0  0  0
 13 14  1  0  0  0
 14 15  1  0  0  0
 14 38  2  0  0  0
 15 16  1  0  0  0
 15 43  1  0  0  0
 16 17  2  0  0  0
 16 18  1  0  0  0
 18 19  1  0  0  0
 18 44  1  0  0  0
 19 20  2  0  0  0
 19 37  1  0  0  0
 20 21  1  0  0  0
 21 22  1  0  0  0
 21 34  1  0  0  0
 22 23  1  0  0  0
 23 24  1  0  0  0
 24 25  1  0  0  0
 24 45  1  0  0  0
 25 26  2  0  0  0
 25 27  1  0  0  0
 27 28  1  0  0  0
 27 33  1  0  0  0
 28 29  1  0  0  0
 29 30  1  0  0  0
 30 31  1  0  0  0
 30 32  1  0  0  0
 31 46  1  0  0  0
 32 33  1  0  0  0
 34 35  2  0  0  0
 34 36  1  0  0  0
 36 37  2  0  0  0
 39 40  2  0  0  0
M  END
>  <AUTHOR>
    GENERATED BY OPEN BABEL 2.3.2

>  <CHROM.1>
142.14894743,46.08264546,-74.29962369,59.25844734,84.95807827,-104.85719196
174.37343164,150.10745904,-57.33216855,-75.80197743,-177.72852940,60.12568303
-9.76507394,8.92116432,71.88975193,2.15757165,-0.81270039,-0.71035311

>  <COMPND>
    UNNAMED

>  <MASTER>
        0    0    0    0    0    0    0    0   73    0   73    0

>  <Name>
ligands/mol5.pdb

>  <RI>
1.78028e+07

>  <Rbt.Current_Directory>
/home/rochoa/Projects/OCONDOR

>  <Rbt.Executable>
rbdock ($Id: //depot/dev/client3/rdock/2013.1/src/exe/rbdock.cxx#4 $)

>  <Rbt.Library>
libRbt.so (2013.1, Build901 2013/11/27)

>  <Rbt.Parameter_File>
dock.prm

>  <Rbt.Receptor>
rdock.prm

>  <SCORE>
-15.61

>  <SCORE.INTER>
-13.744

>  <SCORE.INTER.CONST>
1

>  <SCORE.INTER.POLAR>
-0.825792

>  <SCORE.INTER.REPUL>
0

>  <SCORE.INTER.ROT>
11

>  <SCORE.INTER.VDW>
-27.3363

>  <SCORE.INTER.norm>
-0.3436

>  <SCORE.INTRA>
-1.86599

>  <SCORE.INTRA.DIHEDRAL>
0.690787

>  <SCORE.INTRA.DIHEDRAL.0>
8.44371

>  <SCORE.INTRA.POLAR>
0

>  <SCORE.INTRA.POLAR.0>
0

>  <SCORE.INTRA.REPUL>
0

>  <SCORE.INTRA.REPUL.0>
0

>  <SCORE.INTRA.VDW>
-2.21139

>  <SCORE.INTRA.VDW.0>
-2.13059

>  <SCORE.INTRA.norm>
-0.0466498

>  <SCORE.RESTR>
0

>  <SCORE.RESTR.CAVITY>
0

>  <SCORE.RESTR.norm>
0

>  <SCORE.SYSTEM>
0

>  <SCORE.SYSTEM.CONST>
0

>  <SCORE.SYSTEM.DIHEDRAL>
0

>  <SCORE.SYSTEM.norm>
0

>  <SCORE.heavy>
40

>  <SCORE.norm>
-0.39025

$$$$
ligands/mol5.pdb
  rDOCK(R)          3D
libRbt.so/2013.1/901 2013/11/27
 46 49  0  0  0  0  0  0  0  0999 V2000
   -9.9361   11.1109   62.1921 N   0  0  0  0  0  0
  -10.7922   11.1054   63.6600 S   0  0  0  0  0  0
  -12.2024   10.8627   63.3776 O   0  0  0  0  0  0
  -10.0536   10.2956   64.5830 O   0  0  0  0  0  0
  -10.6081   12.8002   64.1863 C   0  0  0  0  0  0
   -9.6301   13.1696   65.1112 C   0  0  0  0  0  0
   -9.5403   14.5055   65.5163 C   0  0  0  0  0  0
  -10.4093   15.4802   64.9994 C   0  0  0  0  0  0
  -10.3668   16.9090   65.5231 C   0  0  0  0  0  0
  -10.6632   17.0598   67.0044 C   0  0  0  0  0  0
   -9.9400   17.9566   67.8045 C   0  0  0  0  0  0
  -10.1935   18.0601   69.1673 C   0  0  0  0  0  0
  -11.1342   17.2318   69.7627 C   0  0  0  0  0  0
  -11.8041   16.2546   69.0210 C   0  0  0  0  0  0
  -12.6453   15.2869   69.6390 N   0  0  0  0  0  0
  -12.1895   14.0431   70.0521 C   0  0  0  0  0  0
  -11.8544   13.7777   71.1988 O   0  0  0  0  0  0
  -12.1283   13.1156   69.0228 N   0  0  0  0  0  0
  -11.6986   11.8084   69.1407 C   0  0  0  0  0  0
  -11.2459   11.3069   70.3007 C   0  0  0  0  0  0
  -10.7490    9.8788   70.4304 C   0  0  0  0  0  0
   -9.2099    9.8270   70.4144 C   0  0  0  0  0  0
   -8.6208    8.5368   71.0030 C   0  0  0  0  0  0
   -8.8746    8.4108   72.4364 N   0  0  0  0  0  0
   -7.9151    8.6109   73.3996 C   0  0  0  0  0  0
   -6.7488    8.8856   73.1189 O   0  0  0  0  0  0
   -8.3902    8.3636   74.8517 C   0  0  0  0  0  0
   -8.6701    6.8809   75.1522 C   0  0  0  0  0  0
   -7.4047    6.0310   75.3172 C   0  0  0  0  0  0
   -6.3346    6.6442   76.2189 C   0  0  0  0  0  0
   -6.6556    6.3950   77.5828 O   0  0  0  0  0  0
   -6.1339    8.1502   75.9887 C   0  0  0  0  0  0
   -7.4533    8.9158   75.9324 C   0  0  0  0  0  0
  -11.3516    9.0116   69.3181 C   0  0  0  0  0  0
  -11.6383    7.8349   69.5354 O   0  0  0  0  0  0
  -11.4514    9.5651   68.0671 N   0  0  0  0  0  0
  -11.6248   10.8450   67.9977 C   0  0  0  0  0  0
  -11.6006   16.2087   67.6314 C   0  0  0  0  0  0
  -11.3668   15.0953   64.0474 C   0  0  0  0  0  0
  -11.4694   13.7609   63.6388 C   0  0  0  0  0  0
   -9.5120   10.2213   61.9226 H   0  0  0  0  0  0
  -10.4104   11.5736   61.4073 H   0  0  0  0  0  0
  -13.6398   15.3840   69.4890 H   0  0  0  0  0  0
  -12.4291   13.4186   68.1084 H   0  0  0  0  0  0
   -9.8441    8.2914   72.7184 H   0  0  0  0  0  0
   -7.5229    6.7751   77.7824 H   0  0  0  0  0  0
  1  2  1  0  0  0
  1 41  1  0  0  0
  1 42  1  0  0  0
  2  3  2  0  0  0
  2  4  2  0  0  0
  2  5  1  0  0  0
  5  6  2  0  0  0
  5 40  1  0  0  0
  6  7  1  0  0  0
  7  8  2  0  0  0
  8  9  1  0  0  0
  8 39  1  0  0  0
  9 10  1  0  0  0
 10 11  2  0  0  0
 10 38  1  0  0  0
 11 12  1  0  0  0
 12 13  2  0  0  0
 13 14  1  0  0  0
 14 15  1  0  0  0
 14 38  2  0  0  0
 15 16  1  0  0  0
 15 43  1  0  0  0
 16 17  2  0  0  0
 16 18  1  0  0  0
 18 19  1  0  0  0
 18 44  1  0  0  0
 19 20  2  0  0  0
 19 37  1  0  0  0
 20 21  1  0  0  0
 21 22  1  0  0  0
 21 34  1  0  0  0
 22 23  1  0  0  0
 23 24  1  0  0  0
 24 25  1  0  0  0
 24 45  1  0  0  0
 25 26  2  0  0  0
 25 27  1  0  0  0
 27 28  1  0  0  0
 27 33  1  0  0  0
 28 29  1  0  0  0
 29 30  1  0  0  0
 30 31  1  0  0  0
 30 32  1  0  0  0
 31 46  1  0  0  0
 32 33  1  0  0  0
 34 35  2  0  0  0
 34 36  1  0  0  0
 36 37  2  0  0  0
 39 40  2  0  0  0
M  END
>  <AUTHOR>
    GENERATED BY OPEN BABEL 2.3.2

>  <CHROM.1>
-94.45090654,-97.88271779,-60.51224515,139.73705962,-91.91030283,97.10546456
-2.05941567,160.36548744,-66.49920098,-105.27653948,69.25570053,-58.80883066
-10.06541947,11.60221627,69.19980763,-3.03843495,-1.29411791,0.71727541

>  <COMPND>
    UNNAMED

>  <MASTER>
        0    0    0    0    0    0    0    0   73    0   73    0

>  <Name>
ligands/mol5.pdb

>  <RI>
1.78028e+07

>  <Rbt.Current_Directory>
/home/rochoa/Projects/OCONDOR

>  <Rbt.Executable>
rbdock ($Id: //depot/dev/client3/rdock/2013.1/src/exe/rbdock.cxx#4 $)

>  <Rbt.Library>
libRbt.so (2013.1, Build901 2013/11/27)

>  <Rbt.Parameter_File>
dock.prm

>  <Rbt.Receptor>
rdock.prm

>  <SCORE>
-15.4419

>  <SCORE.INTER>
-13.0628

>  <SCORE.INTER.CONST>
1

>  <SCORE.INTER.POLAR>
-1.50282

>  <SCORE.INTER.REPUL>
0.390729

>  <SCORE.INTER.ROT>
11

>  <SCORE.INTER.VDW>
-26.3069

>  <SCORE.INTER.norm>
-0.32657

>  <SCORE.INTRA>
-2.37905

>  <SCORE.INTRA.DIHEDRAL>
-0.562871

>  <SCORE.INTRA.DIHEDRAL.0>
8.44371

>  <SCORE.INTRA.POLAR>
0

>  <SCORE.INTRA.POLAR.0>
0

>  <SCORE.INTRA.REPUL>
0.00486637

>  <SCORE.INTRA.REPUL.0>
0

>  <SCORE.INTRA.VDW>
-2.12195

>  <SCORE.INTRA.VDW.0>
-2.13059

>  <SCORE.INTRA.norm>
-0.0594763

>  <SCORE.RESTR>
0

>  <SCORE.RESTR.CAVITY>
0

>  <SCORE.RESTR.norm>
0

>  <SCORE.SYSTEM>
0

>  <SCORE.SYSTEM.CONST>
0

>  <SCORE.SYSTEM.DIHEDRAL>
0

>  <SCORE.SYSTEM.norm>
0

>  <SCORE.heavy>
40

>  <SCORE.norm>
-0.386047

$$$$
ligands/mol5.pdb
  rDOCK(R)          3D
libRbt.so/2013.1/901 2013/11/27
 46 49  0  0  0  0  0  0  0  0999 V2000
   -8.1195   10.8539   61.5157 N   0  0  0  0  0  0
   -9.4380   10.0217   62.1912 S   0  0  0  0  0  0
  -10.2350    9.4529   61.1102 O   0  0  0  0  0  0
   -8.9325    9.2179   63.2643 O   0  0  0  0  0  0
  -10.3629   11.3577   62.9281 C   0  0  0  0  0  0
   -9.7220   12.4889   63.4362 C   0  0  0  0  0  0
  -10.4851   13.4994   64.0305 C   0  0  0  0  0  0
  -11.8835   13.3989   64.1133 C   0  0  0  0  0  0
  -12.6918   14.4570   64.8513 C   0  0  0  0  0  0
  -12.0857   14.9325   66.1595 C   0  0  0  0  0  0
  -11.1733   15.9973   66.1951 C   0  0  0  0  0  0
  -10.5951   16.4009   67.3930 C   0  0  0  0  0  0
  -10.8763   15.7133   68.5652 C   0  0  0  0  0  0
  -11.7000   14.5840   68.5566 C   0  0  0  0  0  0
  -11.8679   13.7674   69.7103 N   0  0  0  0  0  0
  -11.4714   12.4386   69.7595 C   0  0  0  0  0  0
  -10.3629   12.0373   69.4309 O   0  0  0  0  0  0
  -12.4717   11.5874   70.2050 N   0  0  0  0  0  0
  -12.3633   10.2170   70.3384 C   0  0  0  0  0  0
  -13.3983    9.4521   70.7200 C   0  0  0  0  0  0
  -13.2785    7.9491   70.8924 C   0  0  0  0  0  0
  -13.1338    7.5745   72.3792 C   0  0  0  0  0  0
  -11.8022    8.0101   73.0077 C   0  0  0  0  0  0
  -10.6811    7.1816   72.5697 N   0  0  0  0  0  0
  -10.3552    5.9767   73.1442 C   0  0  0  0  0  0
  -10.9751    5.5159   74.1023 O   0  0  0  0  0  0
   -9.0917    5.2990   72.5613 C   0  0  0  0  0  0
   -8.8188    3.9094   73.1624 C   0  0  0  0  0  0
   -9.7622    2.8148   72.6498 C   0  0  0  0  0  0
   -9.9575    2.7958   71.1347 C   0  0  0  0  0  0
   -8.8684    2.1177   70.5186 O   0  0  0  0  0  0
  -10.1229    4.1963   70.5241 C   0  0  0  0  0  0
   -9.0767    5.1849   71.0324 C   0  0  0  0  0  0
  -12.1026    7.4188   70.0627 C   0  0  0  0  0  0
  -12.1677    6.3108   69.5317 O   0  0  0  0  0  0
  -10.9576    8.1734   70.0322 N   0  0  0  0  0  0
  -11.0896    9.4552   70.1447 C   0  0  0  0  0  0
  -12.3423   14.2299   67.3581 C   0  0  0  0  0  0
  -12.5129   12.2677   63.5698 C   0  0  0  0  0  0
  -11.7594   11.2480   62.9777 C   0  0  0  0  0  0
   -7.5964   10.3484   60.7981 H   0  0  0  0  0  0
   -8.3020   11.8302   61.2539 H   0  0  0  0  0  0
  -12.5613   14.0641   70.3827 H   0  0  0  0  0  0
  -13.3546   12.0044   70.4599 H   0  0  0  0  0  0
  -10.2087    7.4690   71.7165 H   0  0  0  0  0  0
   -8.9966    2.1111   69.5594 H   0  0  0  0  0  0
  1  2  1  0  0  0
  1 41  1  0  0  0
  1 42  1  0  0  0
  2  3  2  0  0  0
  2  4  2  0  0  0
  2  5  1  0  0  0
  5  6  2  0  0  0
  5 40  1  0  0  0
  6  7  1  0  0  0
  7  8  2  0  0  0
  8  9  1  0  0  0
  8 39  1  0  0  0
  9 10  1  0  0  0
 10 11  2  0  0  0
 10 38  1  0  0  0
 11 12  1  0  0  0
 12 13  2  0  0  0
 13 14  1  0  0  0
 14 15  1  0  0  0
 14 38  2  0  0  0
 15 16  1  0  0  0
 15 43  1  0  0  0
 16 17  2  0  0  0
 16 18  1  0  0  0
 18 19  1  0  0  0
 18 44  1  0  0  0
 19 20  2  0  0  0
 19 37  1  0  0  0
 20 21  1  0  0  0
 21 22  1  0  0  0
 21 34  1  0  0  0
 22 23  1  0  0  0
 23 24  1  0  0  0
 24 25  1  0  0  0
 24 45  1  0  0  0
 25 26  2  0  0  0
 25 27  1  0  0  0
 27 28  1  0  0  0
 27 33  1  0  0  0
 28 29  1  0  0  0
 29 30  1  0  0  0
 30 31  1  0  0  0
 30 32  1  0  0  0
 31 46  1  0  0  0
 32 33  1  0  0  0
 34 35  2  0  0  0
 34 36  1  0  0  0
 36 37  2  0  0  0
 39 40  2  0  0  0
M  END
>  <AUTHOR>
    GENERATED BY OPEN BABEL 2.3.2

>  <CHROM.1>
-47.83884143,-31.74992046,-41.56722706,88.12453976,-116.47084343,50.25610868
-176.92159365,-68.54196027,-73.82476529,-83.78152845,-175.96076410,-179.85495421
-10.88245819,9.61762982,68.20468417,-1.66425158,-1.22453437,2.27174646

>  <COMPND>
    UNNAMED

>  <MASTER>
        0    0    0    0    0    0    0    0   73    0   73    0

>  <Name>
ligands/mol5.pdb

>  <RI>
1.78028e+07

>  <Rbt.Current_Directory>
/home/rochoa/Projects/OCONDOR

>  <Rbt.Executable>
rbdock ($Id: //depot/dev/client3/rdock/2013.1/src/exe/rbdock.cxx#4 $)

>  <Rbt.Library>
libRbt.so (2013.1, Build901 2013/11/27)

>  <Rbt.Parameter_File>
dock.prm

>  <Rbt.Receptor>
rdock.prm

>  <SCORE>
-15.7406

>  <SCORE.INTER>
-11.5605

>  <SCORE.INTER.CONST>
1

>  <SCORE.INTER.POLAR>
0

>  <SCORE.INTER.REPUL>
0.0600327

>  <SCORE.INTER.ROT>
11

>  <SCORE.INTER.VDW>
-28.2607

>  <SCORE.INTER.norm>
-0.289012

>  <SCORE.INTRA>
-4.1801

>  <SCORE.INTRA.DIHEDRAL>
-0.596139

>  <SCORE.INTRA.DIHEDRAL.0>
8.44371

>  <SCORE.INTRA.POLAR>
-0.498029

>  <SCORE.INTRA.POLAR.0>
0

>  <SCORE.INTRA.REPUL>
0

>  <SCORE.INTRA.REPUL.0>
0

>  <SCORE.INTRA.VDW>
-2.18873

>  <SCORE.INTRA.VDW.0>
-2.13059

>  <SCORE.INTRA.norm>
-0.104503

>  <SCORE.RESTR>
0

>  <SCORE.RESTR.CAVITY>
0

>  <SCORE.RESTR.norm>
0

>  <SCORE.SYSTEM>
0

>  <SCORE.SYSTEM.CONST>
0

>  <SCORE.SYSTEM.DIHEDRAL>
0

>  <SCORE.SYSTEM.norm>
0

>  <SCORE.heavy>
40

>  <SCORE.norm>
-0.393515

$$$$
ligands/mol5.pdb
  rDOCK(R)          3D
libRbt.so/2013.1/901 2013/11/27
 46 49  0  0  0  0  0  0  0  0999 V2000
   -4.9791    9.7960   76.2614 N   0  0  0  0  0  0
   -6.4951    9.7648   75.4944 S   0  0  0  0  0  0
   -7.3446   10.7860   76.0966 O   0  0  0  0  0  0
   -6.2591    9.7114   74.0821 O   0  0  0  0  0  0
   -7.1092    8.1627   75.9839 C   0  0  0  0  0  0
   -7.9061    8.0082   77.1195 C   0  0  0  0  0  0
   -8.3421    6.7292   77.4812 C   0  0  0  0  0  0
   -8.0008    5.6027   76.7151 C   0  0  0  0  0  0
   -8.3970    4.2067   77.1750 C   0  0  0  0  0  0
   -9.3521    3.4724   76.2511 C   0  0  0  0  0  0
   -9.3912    2.0709   76.2081 C   0  0  0  0  0  0
  -10.2425    1.4081   75.3318 C   0  0  0  0  0  0
  -11.0280    2.1327   74.4465 C   0  0  0  0  0  0
  -10.9444    3.5267   74.3861 C   0  0  0  0  0  0
  -11.6119    4.2767   73.3771 N   0  0  0  0  0  0
  -11.5252    5.6582   73.2808 C   0  0  0  0  0  0
  -11.1538    6.3906   74.1882 O   0  0  0  0  0  0
  -11.9246    6.1446   72.0449 N   0  0  0  0  0  0
  -11.9570    7.4747   71.6747 C   0  0  0  0  0  0
  -12.2842    7.8628   70.4319 C   0  0  0  0  0  0
  -12.2972    9.3213   70.0126 C   0  0  0  0  0  0
  -11.0246    9.6791   69.2226 C   0  0  0  0  0  0
  -11.2488    9.8350   67.7115 C   0  0  0  0  0  0
  -11.7263   11.1687   67.3530 N   0  0  0  0  0  0
  -10.9127   12.2736   67.2783 C   0  0  0  0  0  0
   -9.7113   12.2246   67.5406 O   0  0  0  0  0  0
  -11.6420   13.5963   66.9407 C   0  0  0  0  0  0
  -10.7889   14.8457   67.2202 C   0  0  0  0  0  0
   -9.6771   15.0816   66.1909 C   0  0  0  0  0  0
  -10.1175   14.9577   64.7332 C   0  0  0  0  0  0
  -10.7354   16.1691   64.3136 O   0  0  0  0  0  0
  -11.0571   13.7685   64.4795 C   0  0  0  0  0  0
  -12.1816   13.6798   65.5081 C   0  0  0  0  0  0
  -12.4643   10.2191   71.2448 C   0  0  0  0  0  0
  -13.1079   11.2649   71.1677 O   0  0  0  0  0  0
  -11.7858    9.8653   72.3831 N   0  0  0  0  0  0
  -11.5715    8.6046   72.5774 C   0  0  0  0  0  0
  -10.1415    4.1931   75.3272 C   0  0  0  0  0  0
   -7.2238    5.7817   75.5595 C   0  0  0  0  0  0
   -6.7775    7.0557   75.1908 C   0  0  0  0  0  0
   -4.4079   10.6239   76.0816 H   0  0  0  0  0  0
   -4.9816    9.5285   77.2531 H   0  0  0  0  0  0
  -12.4003    3.8343   72.9258 H   0  0  0  0  0  0
  -12.2114    5.4688   71.3524 H   0  0  0  0  0  0
  -12.6863   11.2357   67.0252 H   0  0  0  0  0  0
  -10.8838   16.1387   63.3579 H   0  0  0  0  0  0
  1  2  1  0  0  0
  1 41  1  0  0  0
  1 42  1  0  0  0
  2  3  2  0  0  0
  2  4  2  0  0  0
  2  5  1  0  0  0
  5  6  2  0  0  0
  5 40  1  0  0  0
  6  7  1  0  0  0
  7  8  2  0  0  0
  8  9  1  0  0  0
  8 39  1  0  0  0
  9 10  1  0  0  0
 10 11  2  0  0  0
 10 38  1  0  0  0
 11 12  1  0  0  0
 12 13  2  0  0  0
 13 14  1  0  0  0
 14 15  1  0  0  0
 14 38  2  0  0  0
 15 16  1  0  0  0
 15 43  1  0  0  0
 16 17  2  0  0  0
 16 18  1  0  0  0
 18 19  1  0  0  0
 18 44  1  0  0  0
 19 20  2  0  0  0
 19 37  1  0  0  0
 20 21  1  0  0  0
 21 22  1  0  0  0
 21 34  1  0  0  0
 22 23  1  0  0  0
 23 24  1  0  0  0
 24 25  1  0  0  0
 24 45  1  0  0  0
 25 26  2  0  0  0
 25 27  1  0  0  0
 27 28  1  0  0  0
 27 33  1  0  0  0
 28 29  1  0  0  0
 29 30  1  0  0  0
 30 31  1  0  0  0
 30 32  1  0  0  0
 31 46  1  0  0  0
 32 33  1  0  0  0
 34 35  2  0  0  0
 34 36  1  0  0  0
 36 37  2  0  0  0
 39 40  2  0  0  0
M  END
>  <AUTHOR>
    GENERATED BY OPEN BABEL 2.3.2

>  <CHROM.1>
-68.83077870,92.76762336,116.81658437,153.75420160,-178.79149523,-17.94634543
176.11696765,105.28903051,84.03259641,77.78906380,165.07571171,171.02868032
-9.93251208,8.84650056,72.02177693,-1.32976004,-0.75466148,-0.68129794

>  <COMPND>
    UNNAMED

>  <MASTER>
        0    0    0    0    0    0    0    0   73    0   73    0

>  <Name>
ligands/mol5.pdb

>  <RI>
1.78028e+07

>  <Rbt.Current_Directory>
/home/rochoa/Projects/OCONDOR

>  <Rbt.Executable>
rbdock ($Id: //depot/dev/client3/rdock/2013.1/src/exe/rbdock.cxx#4 $)

>  <Rbt.Library>
libRbt.so (2013.1, Build901 2013/11/27)

>  <Rbt.Parameter_File>
dock.prm

>  <Rbt.Receptor>
rdock.prm

>  <SCORE>
-9.72512

>  <SCORE.INTER>
-11.2846

>  <SCORE.INTER.CONST>
1

>  <SCORE.INTER.POLAR>
-2.0362

>  <SCORE.INTER.REPUL>
0.208373

>  <SCORE.INTER.ROT>
11

>  <SCORE.INTER.VDW>
-21.8034

>  <SCORE.INTER.norm>
-0.282115

>  <SCORE.INTRA>
1.55947

>  <SCORE.INTRA.DIHEDRAL>
4.12399

>  <SCORE.INTRA.DIHEDRAL.0>
8.44371

>  <SCORE.INTRA.POLAR>
0

>  <SCORE.INTRA.POLAR.0>
0

>  <SCORE.INTRA.REPUL>
0

>  <SCORE.INTRA.REPUL.0>
0

>  <SCORE.INTRA.VDW>
-0.50252

>  <SCORE.INTRA.VDW.0>
-2.13059

>  <SCORE.INTRA.norm>
0.0389868

>  <SCORE.RESTR>
0

>  <SCORE.RESTR.CAVITY>
0

>  <SCORE.RESTR.norm>
0

>  <SCORE.SYSTEM>
0

>  <SCORE.SYSTEM.CONST>
0

>  <SCORE.SYSTEM.DIHEDRAL>
0

>  <SCORE.SYSTEM.norm>
0

>  <SCORE.heavy>
40

>  <SCORE.norm>
-0.243128

$$$$
ligands/mol5.pdb
  rDOCK(R)          3D
libRbt.so/2013.1/901 2013/11/27
 46 49  0  0  0  0  0  0  0  0999 V2000
   -5.1132   17.3603   65.8412 N   0  0  0  0  0  0
   -6.2808   18.5251   65.4318 S   0  0  0  0  0  0
   -6.0073   19.7450   66.1831 O   0  0  0  0  0  0
   -6.4028   18.5253   64.0041 O   0  0  0  0  0  0
   -7.7671   17.7845   66.0846 C   0  0  0  0  0  0
   -9.0189   18.3647   65.8730 C   0  0  0  0  0  0
  -10.1543   17.7644   66.4273 C   0  0  0  0  0  0
  -10.0557   16.5839   67.1816 C   0  0  0  0  0  0
  -11.2844   15.9972   67.8626 C   0  0  0  0  0  0
  -11.5961   14.5571   67.4965 C   0  0  0  0  0  0
  -12.1796   14.2287   66.2640 C   0  0  0  0  0  0
  -12.4957   12.9112   65.9535 C   0  0  0  0  0  0
  -12.2852   11.9083   66.8893 C   0  0  0  0  0  0
  -11.8010   12.2064   68.1662 C   0  0  0  0  0  0
  -11.7355   11.2234   69.1936 N   0  0  0  0  0  0
  -10.8652   10.1435   69.1518 C   0  0  0  0  0  0
   -9.6809   10.2004   69.4548 O   0  0  0  0  0  0
  -11.4668    8.9755   68.7075 N   0  0  0  0  0  0
  -10.8395    7.7550   68.5515 C   0  0  0  0  0  0
   -9.5334    7.5846   68.8107 C   0  0  0  0  0  0
   -8.8332    6.2522   68.6173 C   0  0  0  0  0  0
   -8.0349    6.2350   67.3004 C   0  0  0  0  0  0
   -8.9088    6.1691   66.0394 C   0  0  0  0  0  0
   -8.2607    6.7762   64.8791 N   0  0  0  0  0  0
   -8.3538    8.1113   64.5673 C   0  0  0  0  0  0
   -9.0238    8.8976   65.2361 O   0  0  0  0  0  0
   -7.6382    8.5247   63.2587 C   0  0  0  0  0  0
   -8.4478    8.1887   61.9945 C   0  0  0  0  0  0
   -9.6396    9.1228   61.7536 C   0  0  0  0  0  0
   -9.3262   10.6110   61.8990 C   0  0  0  0  0  0
   -8.7299   11.0955   60.7009 O   0  0  0  0  0  0
   -8.4273   10.9294   63.1041 C   0  0  0  0  0  0
   -7.2210    9.9988   63.1980 C   0  0  0  0  0  0
   -9.8561    5.1106   68.6689 C   0  0  0  0  0  0
   -9.5499    4.0249   69.1602 O   0  0  0  0  0  0
  -11.0660    5.3159   68.0561 N   0  0  0  0  0  0
  -11.5139    6.5288   68.0208 C   0  0  0  0  0  0
  -11.4102   13.5269   68.4454 C   0  0  0  0  0  0
   -8.7918   15.9984   67.3582 C   0  0  0  0  0  0
   -7.6484   16.5929   66.8130 C   0  0  0  0  0  0
   -5.2602   16.4282   65.4493 H   0  0  0  0  0  0
   -4.1367   17.6693   65.7638 H   0  0  0  0  0  0
  -12.5415   11.1395   69.7971 H   0  0  0  0  0  0
  -12.4500    9.0175   68.4837 H   0  0  0  0  0  0
   -7.6123    6.1892   64.3608 H   0  0  0  0  0  0
   -7.8763   10.6593   60.5689 H   0  0  0  0  0  0
  1  2  1  0  0  0
  1 41  1  0  0  0
  1 42  1  0  0  0
  2  3  2  0  0  0
  2  4  2  0  0  0
  2  5  1  0  0  0
  5  6  2  0  0  0
  5 40  1  0  0  0
  6  7  1  0  0  0
  7  8  2  0  0  0
  8  9  1  0  0  0
  8 39  1  0  0  0
  9 10  1  0  0  0
 10 11  2  0  0  0
 10 38  1  0  0  0
 11 12  1  0  0  0
 12 13  2  0  0  0
 13 14  1  0  0  0
 14 15  1  0  0  0
 14 38  2  0  0  0
 15 16  1  0  0  0
 15 43  1  0  0  0
 16 17  2  0  0  0
 16 18  1  0  0  0
 18 19  1  0  0  0
 18 44  1  0  0  0
 19 20  2  0  0  0
 19 37  1  0  0  0
 20 21  1  0  0  0
 21 22  1  0  0  0
 21 34  1  0  0  0
 22 23  1  0  0  0
 23 24  1  0  0  0
 24 25  1  0  0  0
 24 45  1  0  0  0
 25 26  2  0  0  0
 25 27  1  0  0  0
 27 28  1  0  0  0
 27 33  1  0  0  0
 28 29  1  0  0  0
 29 30  1  0  0  0
 30 31  1  0  0  0
 30 32  1  0  0  0
 31 46  1  0  0  0
 32 33  1  0  0  0
 34 35  2  0  0  0
 34 36  1  0  0  0
 36 37  2  0  0  0
 39 40  2  0  0  0
M  END
>  <AUTHOR>
    GENERATED BY OPEN BABEL 2.3.2

>  <CHROM.1>
173.83098050,-174.71840647,124.17829835,-76.02126039,68.26643483,80.39677725
-0.85647148,-71.80756557,152.51134757,-87.89471182,79.27863208,-64.47571762
-9.25932045,11.72711974,66.23194789,-1.22305460,-1.03961779,-2.94302160

>  <COMPND>
    UNNAMED

>  <MASTER>
        0    0    0    0    0    0    0    0   73    0   73    0

>  <Name>
ligands/mol5.pdb

>  <RI>
1.78028e+07

>  <Rbt.Current_Directory>
/home/rochoa/Projects/OCONDOR

>  <Rbt.Executable>
rbdock ($Id: //depot/dev/client3/rdock/2013.1/src/exe/rbdock.cxx#4 $)

>  <Rbt.Library>
libRbt.so (2013.1, Build901 2013/11/27)

>  <Rbt.Parameter_File>
dock.prm

>  <Rbt.Receptor>
rdock.prm

>  <SCORE>
-9.12941

>  <SCORE.INTER>
-8.43114

>  <SCORE.INTER.CONST>
1

>  <SCORE.INTER.POLAR>
-0.968492

>  <SCORE.INTER.REPUL>
0

>  <SCORE.INTER.ROT>
11

>  <SCORE.INTER.VDW>
-21.5383

>  <SCORE.INTER.norm>
-0.210778

>  <SCORE.INTRA>
-0.698269

>  <SCORE.INTRA.DIHEDRAL>
1.18891

>  <SCORE.INTRA.DIHEDRAL.0>
8.44371

>  <SCORE.INTRA.POLAR>
0

>  <SCORE.INTRA.POLAR.0>
0

>  <SCORE.INTRA.REPUL>
0

>  <SCORE.INTRA.REPUL.0>
0

>  <SCORE.INTRA.VDW>
-1.29273

>  <SCORE.INTRA.VDW.0>
-2.13059

>  <SCORE.INTRA.norm>
-0.0174567

>  <SCORE.RESTR>
0

>  <SCORE.RESTR.CAVITY>
0

>  <SCORE.RESTR.norm>
0

>  <SCORE.SYSTEM>
0

>  <SCORE.SYSTEM.CONST>
0

>  <SCORE.SYSTEM.DIHEDRAL>
0

>  <SCORE.SYSTEM.norm>
0

>  <SCORE.heavy>
40

>  <SCORE.norm>
-0.228235

$$$$
ligands/mol5.pdb
  rDOCK(R)          3D
libRbt.so/2013.1/901 2013/11/27
 46 49  0  0  0  0  0  0  0  0999 V2000
   -7.9149   10.7719   76.9973 N   0  0  0  0  0  0
   -6.4474    9.9488   77.2346 S   0  0  0  0  0  0
   -5.3922   10.9302   77.4599 O   0  0  0  0  0  0
   -6.6996    8.8816   78.1570 O   0  0  0  0  0  0
   -6.1918    9.2068   75.6322 C   0  0  0  0  0  0
   -6.3261    7.8306   75.4412 C   0  0  0  0  0  0
   -6.0888    7.2889   74.1736 C   0  0  0  0  0  0
   -5.7298    8.1075   73.0903 C   0  0  0  0  0  0
   -5.3767    7.4945   71.7423 C   0  0  0  0  0  0
   -6.5530    7.2765   70.8075 C   0  0  0  0  0  0
   -6.4679    6.3897   69.7241 C   0  0  0  0  0  0
   -7.5375    6.2252   68.8518 C   0  0  0  0  0  0
   -8.6884    6.9832   69.0148 C   0  0  0  0  0  0
   -8.7758    7.9509   70.0197 C   0  0  0  0  0  0
   -9.8745    8.8522   70.1018 N   0  0  0  0  0  0
   -9.8467   10.1288   69.5587 C   0  0  0  0  0  0
   -9.0104   10.9780   69.8366 O   0  0  0  0  0  0
  -10.8847   10.3659   68.6701 N   0  0  0  0  0  0
  -11.1133   11.5491   67.9954 C   0  0  0  0  0  0
  -12.0582   11.6606   67.0483 C   0  0  0  0  0  0
  -12.2972   12.9510   66.2862 C   0  0  0  0  0  0
  -11.6497   12.8947   64.8901 C   0  0  0  0  0  0
  -12.1726   11.7556   64.0030 C   0  0  0  0  0  0
  -11.2779   11.4631   62.8853 N   0  0  0  0  0  0
   -9.9128   11.3657   63.0087 C   0  0  0  0  0  0
   -9.3345   11.5498   64.0793 O   0  0  0  0  0  0
   -9.1568   11.1099   61.6827 C   0  0  0  0  0  0
   -7.6528   11.4207   61.7743 C   0  0  0  0  0  0
   -6.8478   10.3713   62.5499 C   0  0  0  0  0  0
   -7.1487    8.9229   62.1681 C   0  0  0  0  0  0
   -6.4276    8.5769   60.9909 O   0  0  0  0  0  0
   -8.6470    8.6430   61.9727 C   0  0  0  0  0  0
   -9.3331    9.6988   61.1096 C   0  0  0  0  0  0
  -11.7769   14.1432   67.0988 C   0  0  0  0  0  0
  -12.3627   15.2245   67.0584 O   0  0  0  0  0  0
  -10.5920   13.9830   67.7710 N   0  0  0  0  0  0
  -10.3048   12.7935   68.1900 C   0  0  0  0  0  0
   -7.7232    8.0562   70.9445 C   0  0  0  0  0  0
   -5.6291    9.4929   73.2947 C   0  0  0  0  0  0
   -5.8589   10.0455   74.5596 C   0  0  0  0  0  0
   -7.9067   11.4937   76.2741 H   0  0  0  0  0  0
   -8.7508   10.1771   76.9488 H   0  0  0  0  0  0
  -10.5548    8.6777   70.8281 H   0  0  0  0  0  0
  -11.5268    9.6071   68.4955 H   0  0  0  0  0  0
  -11.7174   11.1988   62.0074 H   0  0  0  0  0  0
   -6.6751    9.1792   60.2751 H   0  0  0  0  0  0
  1  2  1  0  0  0
  1 41  1  0  0  0
  1 42  1  0  0  0
  2  3  2  0  0  0
  2  4  2  0  0  0
  2  5  1  0  0  0
  5  6  2  0  0  0
  5 40  1  0  0  0
  6  7  1  0  0  0
  7  8  2  0  0  0
  8  9  1  0  0  0
  8 39  1  0  0  0
  9 10  1  0  0  0
 10 11  2  0  0  0
 10 38  1  0  0  0
 11 12  1  0  0  0
 12 13  2  0  0  0
 13 14  1  0  0  0
 14 15  1  0  0  0
 14 38  2  0  0  0
 15 16  1  0  0  0
 15 43  1  0  0  0
 16 17  2  0  0  0
 16 18  1  0  0  0
 18 19  1  0  0  0
 18 44  1  0  0  0
 19 20  2  0  0  0
 19 37  1  0  0  0
 20 21  1  0  0  0
 21 22  1  0  0  0
 21 34  1  0  0  0
 22 23  1  0  0  0
 23 24  1  0  0  0
 24 25  1  0  0  0
 24 45  1  0  0  0
 25 26  2  0  0  0
 25 27  1  0  0  0
 27 28  1  0  0  0
 27 33  1  0  0  0
 28 29  1  0  0  0
 29 30  1  0  0  0
 30 31  1  0  0  0
 30 32  1  0  0  0
 31 46  1  0  0  0
 32 33  1  0  0  0
 34 35  2  0  0  0
 34 36  1  0  0  0
 36 37  2  0  0  0
 39 40  2  0  0  0
M  END
>  <AUTHOR>
    GENERATED BY OPEN BABEL 2.3.2

>  <CHROM.1>
53.22399417,-108.93114658,88.40219472,-161.16344175,-95.38180741,-56.58539332
173.04341480,59.48473630,-161.97385709,44.47863299,162.78556831,-58.32377644
-8.51794747,10.12040243,68.94956882,1.19016697,-0.83595412,1.43698360

>  <COMPND>
    UNNAMED

>  <MASTER>
        0    0    0    0    0    0    0    0   73    0   73    0

>  <Name>
ligands/mol5.pdb

>  <RI>
1.78028e+07

>  <Rbt.Current_Directory>
/home/rochoa/Projects/OCONDOR

>  <Rbt.Executable>
rbdock ($Id: //depot/dev/client3/rdock/2013.1/src/exe/rbdock.cxx#4 $)

>  <Rbt.Library>
libRbt.so (2013.1, Build901 2013/11/27)

>  <Rbt.Parameter_File>
dock.prm

>  <Rbt.Receptor>
rdock.prm

>  <SCORE>
-7.73066

>  <SCORE.INTER>
-6.94352

>  <SCORE.INTER.CONST>
1

>  <SCORE.INTER.POLAR>
-1.05515

>  <SCORE.INTER.REPUL>
0

>  <SCORE.INTER.ROT>
11

>  <SCORE.INTER.VDW>
-19.756

>  <SCORE.INTER.norm>
-0.173588

>  <SCORE.INTRA>
-0.787141

>  <SCORE.INTRA.DIHEDRAL>
-1.02509

>  <SCORE.INTRA.DIHEDRAL.0>
8.44371

>  <SCORE.INTRA.POLAR>
0

>  <SCORE.INTRA.POLAR.0>
0

>  <SCORE.INTRA.REPUL>
0

>  <SCORE.INTRA.REPUL.0>
0

>  <SCORE.INTRA.VDW>
-0.274594

>  <SCORE.INTRA.VDW.0>
-2.13059

>  <SCORE.INTRA.norm>
-0.0196785

>  <SCORE.RESTR>
0

>  <SCORE.RESTR.CAVITY>
0

>  <SCORE.RESTR.norm>
0

>  <SCORE.SYSTEM>
0

>  <SCORE.SYSTEM.CONST>
0

>  <SCORE.SYSTEM.DIHEDRAL>
0

>  <SCORE.SYSTEM.norm>
0

>  <SCORE.heavy>
40

>  <SCORE.norm>
-0.193266

$$$$
ligands/mol5.pdb
  rDOCK(R)          3D
libRbt.so/2013.1/901 2013/11/27
 46 49  0  0  0  0  0  0  0  0999 V2000
  -11.6757   11.2484   64.4491 N   0  0  0  0  0  0
  -12.7935   12.4468   63.9998 S   0  0  0  0  0  0
  -12.8807   12.4823   62.5443 O   0  0  0  0  0  0
  -13.9532   12.2812   64.8248 O   0  0  0  0  0  0
  -11.9667   13.9293   64.5495 C   0  0  0  0  0  0
  -11.9539   15.0846   63.7663 C   0  0  0  0  0  0
  -11.2694   16.2151   64.2247 C   0  0  0  0  0  0
  -10.6064   16.2093   65.4628 C   0  0  0  0  0  0
   -9.7820   17.4108   65.9034 C   0  0  0  0  0  0
   -8.2991   17.1412   66.0852 C   0  0  0  0  0  0
   -7.3310   18.0112   65.5624 C   0  0  0  0  0  0
   -5.9756   17.7359   65.7016 C   0  0  0  0  0  0
   -5.5659   16.5611   66.3162 C   0  0  0  0  0  0
   -6.4981   15.6188   66.7602 C   0  0  0  0  0  0
   -6.1025   14.3381   67.2392 N   0  0  0  0  0  0
   -6.9305   13.5286   68.0038 C   0  0  0  0  0  0
   -6.8756   13.4428   69.2234 O   0  0  0  0  0  0
   -7.8302   12.7964   67.2436 N   0  0  0  0  0  0
   -8.7592   11.9009   67.7358 C   0  0  0  0  0  0
   -8.9235   11.6926   69.0518 C   0  0  0  0  0  0
   -9.9252   10.6918   69.5978 C   0  0  0  0  0  0
   -9.2269    9.3834   70.0129 C   0  0  0  0  0  0
   -8.3026    9.5263   71.2308 C   0  0  0  0  0  0
   -8.0562    8.2493   71.8970 N   0  0  0  0  0  0
   -8.9539    7.6485   72.7464 C   0  0  0  0  0  0
  -10.0334    8.1645   73.0344 O   0  0  0  0  0  0
   -8.4592    6.3299   73.3883 C   0  0  0  0  0  0
   -7.4466    6.5533   74.5248 C   0  0  0  0  0  0
   -8.0761    7.0653   75.8258 C   0  0  0  0  0  0
   -9.3324    6.3163   76.2672 C   0  0  0  0  0  0
   -8.9651    5.1174   76.9403 O   0  0  0  0  0  0
  -10.2921    6.0008   75.1092 C   0  0  0  0  0  0
   -9.5752    5.4103   73.8978 C   0  0  0  0  0  0
  -11.0274   10.4360   68.5624 C   0  0  0  0  0  0
  -12.1841   10.2276   68.9264 O   0  0  0  0  0  0
  -10.6514   10.3432   67.2466 N   0  0  0  0  0  0
   -9.6199   11.0297   66.8754 C   0  0  0  0  0  0
   -7.8643   15.9392   66.6873 C   0  0  0  0  0  0
  -10.6559   15.0480   66.2502 C   0  0  0  0  0  0
  -11.3329   13.9093   65.7995 C   0  0  0  0  0  0
  -10.7278   11.3676   64.0866 H   0  0  0  0  0  0
  -11.6862   10.9862   65.4421 H   0  0  0  0  0  0
   -5.1100   14.1561   67.2893 H   0  0  0  0  0  0
   -7.8096   12.9327   66.2439 H   0  0  0  0  0  0
   -7.2275    7.7369   71.6069 H   0  0  0  0  0  0
   -8.4142    4.5778   76.3557 H   0  0  0  0  0  0
  1  2  1  0  0  0
  1 41  1  0  0  0
  1 42  1  0  0  0
  2  3  2  0  0  0
  2  4  2  0  0  0
  2  5  1  0  0  0
  5  6  2  0  0  0
  5 40  1  0  0  0
  6  7  1  0  0  0
  7  8  2  0  0  0
  8  9  1  0  0  0
  8 39  1  0  0  0
  9 10  1  0  0  0
 10 11  2  0  0  0
 10 38  1  0  0  0
 11 12  1  0  0  0
 12 13  2  0  0  0
 13 14  1  0  0  0
 14 15  1  0  0  0
 14 38  2  0  0  0
 15 16  1  0  0  0
 15 43  1  0  0  0
 16 17  2  0  0  0
 16 18  1  0  0  0
 18 19  1  0  0  0
 18 44  1  0  0  0
 19 20  2  0  0  0
 19 37  1  0  0  0
 20 21  1  0  0  0
 21 22  1  0  0  0
 21 34  1  0  0  0
 22 23  1  0  0  0
 23 24  1  0  0  0
 24 25  1  0  0  0
 24 45  1  0  0  0
 25 26  2  0  0  0
 25 27  1  0  0  0
 27 28  1  0  0  0
 27 33  1  0  0  0
 28 29  1  0  0  0
 29 30  1  0  0  0
 30 31  1  0  0  0
 30 32  1  0  0  0
 31 46  1  0  0  0
 32 33  1  0  0  0
 34 35  2  0  0  0
 34 36  1  0  0  0
 36 37  2  0  0  0
 39 40  2  0  0  0
M  END
>  <AUTHOR>
    GENERATED BY OPEN BABEL 2.3.2

>  <CHROM.1>
58.92574591,137.99944884,-116.84676994,133.76820390,162.32012095,-98.64753592
3.13057824,68.01108591,158.66607537,-78.37214109,75.99402541,-57.21423175
-9.54138973,11.72896142,68.50685817,1.66647815,-0.60561889,-0.77838018

>  <COMPND>
    UNNAMED

>  <MASTER>
        0    0    0    0    0    0    0    0   73    0   73    0

>  <Name>
ligands/mol5.pdb

>  <RI>
1.78028e+07

>  <Rbt.Current_Directory>
/home/rochoa/Projects/OCONDOR

>  <Rbt.Executable>
rbdock ($Id: //depot/dev/client3/rdock/2013.1/src/exe/rbdock.cxx#4 $)

>  <Rbt.Library>
libRbt.so (2013.1, Build901 2013/11/27)

>  <Rbt.Parameter_File>
dock.prm

>  <Rbt.Receptor>
rdock.prm

>  <SCORE>
-11.8723

>  <SCORE.INTER>
-6.88896

>  <SCORE.INTER.CONST>
1

>  <SCORE.INTER.POLAR>
-0.0589383

>  <SCORE.INTER.REPUL>
0.311933

>  <SCORE.INTER.ROT>
11

>  <SCORE.INTER.VDW>
-24.6482

>  <SCORE.INTER.norm>
-0.172224

>  <SCORE.INTRA>
-4.98331

>  <SCORE.INTRA.DIHEDRAL>
0.244801

>  <SCORE.INTRA.DIHEDRAL.0>
8.44371

>  <SCORE.INTRA.POLAR>
-1

>  <SCORE.INTRA.POLAR.0>
0

>  <SCORE.INTRA.REPUL>
0

>  <SCORE.INTRA.REPUL.0>
0

>  <SCORE.INTRA.VDW>
-1.70572

>  <SCORE.INTRA.VDW.0>
-2.13059

>  <SCORE.INTRA.norm>
-0.124583

>  <SCORE.RESTR>
0

>  <SCORE.RESTR.CAVITY>
0

>  <SCORE.RESTR.norm>
0

>  <SCORE.SYSTEM>
0

>  <SCORE.SYSTEM.CONST>
0

>  <SCORE.SYSTEM.DIHEDRAL>
0

>  <SCORE.SYSTEM.norm>
0

>  <SCORE.heavy>
40

>  <SCORE.norm>
-0.296807

$$$$
ligands/mol5.pdb
  rDOCK(R)          3D
libRbt.so/2013.1/901 2013/11/27
 46 49  0  0  0  0  0  0  0  0999 V2000
   -5.4546   16.9156   65.6484 N   0  0  0  0  0  0
   -6.3937   18.3317   65.6309 S   0  0  0  0  0  0
   -5.7516   19.3287   66.4800 O   0  0  0  0  0  0
   -6.7322   18.6038   64.2654 O   0  0  0  0  0  0
   -7.8849   17.7804   66.4406 C   0  0  0  0  0  0
   -7.8357   16.9716   67.5772 C   0  0  0  0  0  0
   -9.0305   16.5400   68.1628 C   0  0  0  0  0  0
  -10.2755   16.9163   67.6329 C   0  0  0  0  0  0
  -11.5651   16.3584   68.2188 C   0  0  0  0  0  0
  -11.7890   14.8753   67.9838 C   0  0  0  0  0  0
  -12.1785   14.3873   66.7278 C   0  0  0  0  0  0
  -12.4175   13.0321   66.5323 C   0  0  0  0  0  0
  -12.3251   12.1504   67.6000 C   0  0  0  0  0  0
  -12.0396   12.6094   68.8891 C   0  0  0  0  0  0
  -12.1045   11.7524   70.0237 N   0  0  0  0  0  0
  -12.1279   10.3685   69.9249 C   0  0  0  0  0  0
  -12.9200    9.6484   70.5179 O   0  0  0  0  0  0
  -11.1398    9.8647   69.0922 N   0  0  0  0  0  0
  -10.9182    8.5286   68.8217 C   0  0  0  0  0  0
  -11.5795    7.5508   69.4609 C   0  0  0  0  0  0
  -11.3224    6.0807   69.1857 C   0  0  0  0  0  0
  -10.4242    5.4649   70.2745 C   0  0  0  0  0  0
  -10.0202    4.0085   70.0030 C   0  0  0  0  0  0
   -9.2269    3.4378   71.0893 N   0  0  0  0  0  0
   -9.7685    2.7393   72.1415 C   0  0  0  0  0  0
  -10.9811    2.5671   72.2619 O   0  0  0  0  0  0
   -8.7480    2.2784   73.2100 C   0  0  0  0  0  0
   -8.2826    3.4178   74.1330 C   0  0  0  0  0  0
   -9.3275    3.8414   75.1721 C   0  0  0  0  0  0
   -9.9936    2.6863   75.9179 C   0  0  0  0  0  0
   -9.1489    2.2471   76.9758 O   0  0  0  0  0  0
  -10.3602    1.5040   75.0073 C   0  0  0  0  0  0
   -9.2180    1.1044   74.0767 C   0  0  0  0  0  0
  -10.7111    5.9083   67.7897 C   0  0  0  0  0  0
  -10.9886    4.9221   67.1083 O   0  0  0  0  0  0
   -9.7759    6.8285   67.3896 N   0  0  0  0  0  0
   -9.8887    8.0293   67.8569 C   0  0  0  0  0  0
  -11.7223   13.9670   69.0640 C   0  0  0  0  0  0
  -10.3051   17.7550   66.5073 C   0  0  0  0  0  0
   -9.1163   18.1885   65.9098 C   0  0  0  0  0  0
   -4.5592   16.9711   65.1593 H   0  0  0  0  0  0
   -5.3754   16.4508   66.5609 H   0  0  0  0  0  0
  -12.4523   12.1566   70.8819 H   0  0  0  0  0  0
  -10.5324   10.5311   68.6391 H   0  0  0  0  0  0
   -8.2167    3.4623   70.9770 H   0  0  0  0  0  0
   -9.0454    2.9612   77.6205 H   0  0  0  0  0  0
  1  2  1  0  0  0
  1 41  1  0  0  0
  1 42  1  0  0  0
  2  3  2  0  0  0
  2  4  2  0  0  0
  2  5  1  0  0  0
  5  6  2  0  0  0
  5 40  1  0  0  0
  6  7  1  0  0  0
  7  8  2  0  0  0
  8  9  1  0  0  0
  8 39  1  0  0  0
  9 10  1  0  0  0
 10 11  2  0  0  0
 10 38  1  0  0  0
 11 12  1  0  0  0
 12 13  2  0  0  0
 13 14  1  0  0  0
 14 15  1  0  0  0
 14 38  2  0  0  0
 15 16  1  0  0  0
 15 43  1  0  0  0
 16 17  2  0  0  0
 16 18  1  0  0  0
 18 19  1  0  0  0
 18 44  1  0  0  0
 19 20  2  0  0  0
 19 37  1  0  0  0
 20 21  1  0  0  0
 21 22  1  0  0  0
 21 34  1  0  0  0
 22 23  1  0  0  0
 23 24  1  0  0  0
 24 25  1  0  0  0
 24 45  1  0  0  0
 25 26  2  0  0  0
 25 27  1  0  0  0
 27 28  1  0  0  0
 27 33  1  0  0  0
 28 29  1  0  0  0
 29 30  1  0  0  0
 30 31  1  0  0  0
 30 32  1  0  0  0
 31 46  1  0  0  0
 32 33  1  0  0  0
 34 35  2  0  0  0
 34 36  1  0  0  0
 36 37  2  0  0  0
 39 40  2  0  0  0
M  END
>  <AUTHOR>
    GENERATED BY OPEN BABEL 2.3.2

>  <CHROM.1>
-70.61557729,42.80652193,-68.38873771,-74.88526666,16.15328585,-131.95216795
-6.75367159,-175.07047098,-177.04433532,92.34975001,76.03500443,63.88045442
-9.86925150,10.17793687,69.34301597,-1.46810842,0.40200885,2.66804361

>  <COMPND>
    UNNAMED

>  <MASTER>
        0    0    0    0    0    0    0    0   73    0   73    0

>  <Name>
ligands/mol5.pdb

>  <RI>
1.78028e+07

>  <Rbt.Current_Directory>
/home/rochoa/Projects/OCONDOR

>  <Rbt.Executable>
rbdock ($Id: //depot/dev/client3/rdock/2013.1/src/exe/rbdock.cxx#4 $)

>  <Rbt.Library>
libRbt.so (2013.1, Build901 2013/11/27)

>  <Rbt.Parameter_File>
dock.prm

>  <Rbt.Receptor>
rdock.prm

>  <SCORE>
-5.9058

>  <SCORE.INTER>
-4.52986

>  <SCORE.INTER.CONST>
1

>  <SCORE.INTER.POLAR>
0

>  <SCORE.INTER.REPUL>
0

>  <SCORE.INTER.ROT>
11

>  <SCORE.INTER.VDW>
-20.9299

>  <SCORE.INTER.norm>
-0.113246

>  <SCORE.INTRA>
-1.37594

>  <SCORE.INTRA.DIHEDRAL>
-1.03317

>  <SCORE.INTRA.DIHEDRAL.0>
8.44371

>  <SCORE.INTRA.POLAR>
0

>  <SCORE.INTRA.POLAR.0>
0

>  <SCORE.INTRA.REPUL>
0

>  <SCORE.INTRA.REPUL.0>
0

>  <SCORE.INTRA.VDW>
-0.859356

>  <SCORE.INTRA.VDW.0>
-2.13059

>  <SCORE.INTRA.norm>
-0.0343985

>  <SCORE.RESTR>
0

>  <SCORE.RESTR.CAVITY>
0

>  <SCORE.RESTR.norm>
0

>  <SCORE.SYSTEM>
0

>  <SCORE.SYSTEM.CONST>
0

>  <SCORE.SYSTEM.DIHEDRAL>
0

>  <SCORE.SYSTEM.norm>
0

>  <SCORE.heavy>
40

>  <SCORE.norm>
-0.147645

$$$$
