ligands/mol3.pdb
  rDOCK(R)          3D
libRbt.so/2013.1/901 2013/11/27
 45 48  0  0  0  0  0  0  0  0999 V2000
  -10.8708   19.1510   67.4011 N   0  0  0  0  0  0
  -10.3071   18.9793   65.8153 S   0  0  0  0  0  0
  -11.0217   19.9067   64.9659 O   0  0  0  0  0  0
   -8.8623   18.9894   65.8965 O   0  0  0  0  0  0
  -10.8483   17.3469   65.3969 C   0  0  0  0  0  0
  -11.4870   17.1086   64.1828 C   0  0  0  0  0  0
  -11.8883   15.8107   63.8594 C   0  0  0  0  0  0
  -11.7768   14.7522   64.7732 C   0  0  0  0  0  0
  -12.3547   13.3504   64.5221 C   0  0  0  0  0  0
  -11.8958   12.2067   65.4224 C   0  0  0  0  0  0
  -10.9314   11.2786   65.0041 C   0  0  0  0  0  0
  -10.3574   10.3827   65.8998 C   0  0  0  0  0  0
  -10.8611   10.2757   67.1888 C   0  0  0  0  0  0
  -11.9730   11.0254   67.5701 C   0  0  0  0  0  0
  -12.6494   10.8088   68.7925 N   0  0  0  0  0  0
  -12.4895   11.5244   69.9625 C   0  0  0  0  0  0
  -11.7605   12.5022   70.1383 O   0  0  0  0  0  0
  -13.2508   10.9611   70.9812 N   0  0  0  0  0  0
  -12.9404    9.6647   71.4396 C   0  0  0  0  0  0
  -13.8786    8.6553   71.2664 C   0  0  0  0  0  0
  -13.5955    7.3729   71.7324 C   0  0  0  0  0  0
  -12.3805    7.1418   72.3759 C   0  0  0  0  0  0
  -12.0410    5.7560   72.8688 C   0  0  0  0  0  0
  -10.5665    5.3955   72.6694 C   0  0  0  0  0  0
   -9.9681    4.8099   73.8564 N   0  0  0  0  0  0
   -9.5873    5.6076   74.9207 C   0  0  0  0  0  0
   -9.7086    6.8268   74.9236 O   0  0  0  0  0  0
   -8.9770    4.8190   76.0797 C   0  0  0  0  0  0
   -8.0333    5.6928   76.9114 C   0  0  0  0  0  0
   -8.7636    6.5988   77.9059 C   0  0  0  0  0  0
   -9.7377    5.8265   78.7911 C   0  0  0  0  0  0
   -9.0085    4.9438   79.6415 O   0  0  0  0  0  0
  -10.7252    5.0085   77.9676 C   0  0  0  0  0  0
  -10.0451    4.1176   76.9279 C   0  0  0  0  0  0
  -11.4668    8.1244   72.5651 N   0  0  0  0  0  0
  -11.7527    9.3542   72.0871 C   0  0  0  0  0  0
  -12.4617   12.0169   66.6971 C   0  0  0  0  0  0
  -11.0944   15.0150   65.9754 C   0  0  0  0  0  0
  -10.6225   16.2984   66.2825 C   0  0  0  0  0  0
  -10.4363   18.5270   68.0860 H   0  0  0  0  0  0
  -11.8959   19.1156   67.4346 H   0  0  0  0  0  0
  -13.1164    9.9172   68.8847 H   0  0  0  0  0  0
  -13.3322   11.6242   71.7429 H   0  0  0  0  0  0
   -9.6327    3.8566   73.8205 H   0  0  0  0  0  0
   -9.6545    4.5051   80.2218 H   0  0  0  0  0  0
  1  2  1  0  0  0
  1 40  1  0  0  0
  1 41  1  0  0  0
  2  3  2  0  0  0
  2  4  2  0  0  0
  2  5  1  0  0  0
  5  6  2  0  0  0
  5 39  1  0  0  0
  6  7  1  0  0  0
  7  8  2  0  0  0
  8  9  1  0  0  0
  8 38  1  0  0  0
  9 10  1  0  0  0
 10 11  2  0  0  0
 10 37  1  0  0  0
 11 12  1  0  0  0
 12 13  2  0  0  0
 13 14  1  0  0  0
 14 15  1  0  0  0
 14 37  2  0  0  0
 15 16  1  0  0  0
 15 42  1  0  0  0
 16 17  2  0  0  0
 16 18  1  0  0  0
 18 19  1  0  0  0
 18 43  1  0  0  0
 19 20  2  0  0  0
 19 36  1  0  0  0
 20 21  1  0  0  0
 21 22  2  0  0  0
 22 23  1  0  0  0
 22 35  1  0  0  0
 23 24  1  0  0  0
 24 25  1  0  0  0
 25 26  1  0  0  0
 25 44  1  0  0  0
 26 27  2  0  0  0
 26 28  1  0  0  0
 28 29  1  0  0  0
 28 34  1  0  0  0
 29 30  1  0  0  0
 30 31  1  0  0  0
 31 32  1  0  0  0
 31 33  1  0  0  0
 32 45  1  0  0  0
 33 34  1  0  0  0
 35 36  2  0  0  0
 38 39  2  0  0  0
M  END
>  <AUTHOR>
    GENERATED BY OPEN BABEL 2.3.2

>  <CHROM.1>
179.21579103,132.90101984,165.86244302,-101.10157436,98.30476097,64.97390511
-116.20622538,141.39399083,132.97699241,-77.84749904,154.53785340,177.03617862
-11.03460810,10.94044141,70.25510263,-1.70258863,1.10372522,2.49767017

>  <COMPND>
    UNNAMED

>  <MASTER>
        0    0    0    0    0    0    0    0   72    0   72    0

>  <Name>
ligands/mol3.pdb

>  <RI>
3.37503e+07

>  <Rbt.Current_Directory>
/home/rodrigo/Desktop/Rodrigo/Proyectos/test_OCONDOR/OCONDOR

>  <Rbt.Executable>
rbdock ($Id: //depot/dev/client3/rdock/2013.1/src/exe/rbdock.cxx#4 $)

>  <Rbt.Library>
libRbt.so (2013.1, Build901 2013/11/27)

>  <Rbt.Parameter_File>
dock.prm

>  <Rbt.Receptor>
rdock.prm

>  <SCORE>
-16.4817

>  <SCORE.INTER>
-20.7341

>  <SCORE.INTER.CONST>
1

>  <SCORE.INTER.POLAR>
-0.871422

>  <SCORE.INTER.REPUL>
0.00168734

>  <SCORE.INTER.ROT>
11

>  <SCORE.INTER.VDW>
-34.1797

>  <SCORE.INTER.norm>
-0.531644

>  <SCORE.INTRA>
4.25239

>  <SCORE.INTRA.DIHEDRAL>
13.4208

>  <SCORE.INTRA.DIHEDRAL.0>
10.441

>  <SCORE.INTRA.POLAR>
0

>  <SCORE.INTRA.POLAR.0>
0

>  <SCORE.INTRA.REPUL>
0

>  <SCORE.INTRA.REPUL.0>
0

>  <SCORE.INTRA.VDW>
-2.45802

>  <SCORE.INTRA.VDW.0>
-1.98888

>  <SCORE.INTRA.norm>
0.109036

>  <SCORE.RESTR>
0

>  <SCORE.RESTR.CAVITY>
0

>  <SCORE.RESTR.norm>
0

>  <SCORE.SYSTEM>
0

>  <SCORE.SYSTEM.CONST>
0

>  <SCORE.SYSTEM.DIHEDRAL>
0

>  <SCORE.SYSTEM.norm>
0

>  <SCORE.heavy>
39

>  <SCORE.norm>
-0.422609

$$$$
ligands/mol3.pdb
  rDOCK(R)          3D
libRbt.so/2013.1/901 2013/11/27
 45 48  0  0  0  0  0  0  0  0999 V2000
   -8.4137   16.8492   65.4688 N   0  0  0  0  0  0
  -10.1047   16.8677   65.4219 S   0  0  0  0  0  0
  -10.5515   18.2405   65.3325 O   0  0  0  0  0  0
  -10.4925   15.8818   64.4361 O   0  0  0  0  0  0
  -10.5335   16.2708   67.0320 C   0  0  0  0  0  0
  -11.1230   17.1225   67.9626 C   0  0  0  0  0  0
  -11.4745   16.6296   69.2209 C   0  0  0  0  0  0
  -11.1431   15.3277   69.6248 C   0  0  0  0  0  0
  -11.3619   14.8007   71.0518 C   0  0  0  0  0  0
  -12.0743   13.4625   71.2276 C   0  0  0  0  0  0
  -12.8974   13.2034   72.3330 C   0  0  0  0  0  0
  -13.7149   12.0790   72.3748 C   0  0  0  0  0  0
  -13.5959   11.1012   71.3968 C   0  0  0  0  0  0
  -12.6239   11.2188   70.4043 C   0  0  0  0  0  0
  -12.3222   10.1653   69.5111 N   0  0  0  0  0  0
  -11.1553   10.0020   68.7912 C   0  0  0  0  0  0
  -10.1555   10.7212   68.8291 O   0  0  0  0  0  0
  -11.2593    8.9028   67.9453 N   0  0  0  0  0  0
  -10.8882    7.6283   68.4196 C   0  0  0  0  0  0
  -10.0500    6.8450   67.6366 C   0  0  0  0  0  0
   -9.6903    5.5745   68.0818 C   0  0  0  0  0  0
  -10.1963    5.1174   69.2979 C   0  0  0  0  0  0
   -9.8026    3.7539   69.8125 C   0  0  0  0  0  0
   -9.0227    3.8144   71.1285 C   0  0  0  0  0  0
   -9.7950    4.4002   72.2103 N   0  0  0  0  0  0
   -9.5366    4.0594   73.5260 C   0  0  0  0  0  0
   -8.6773    3.2500   73.8540 O   0  0  0  0  0  0
  -10.4469    4.7731   74.5257 C   0  0  0  0  0  0
  -10.2980    4.1852   75.9321 C   0  0  0  0  0  0
   -9.0653    4.7016   76.6784 C   0  0  0  0  0  0
   -8.9920    6.2259   76.6978 C   0  0  0  0  0  0
  -10.0722    6.7430   77.4722 O   0  0  0  0  0  0
   -9.0696    6.8147   75.2944 C   0  0  0  0  0  0
  -10.2625    6.2953   74.4916 C   0  0  0  0  0  0
  -11.0286    5.8675   70.0599 N   0  0  0  0  0  0
  -11.3472    7.1033   69.6196 C   0  0  0  0  0  0
  -11.8931   12.4185   70.3012 C   0  0  0  0  0  0
  -10.5822   14.4800   68.6517 C   0  0  0  0  0  0
  -10.2895   14.9417   67.3613 C   0  0  0  0  0  0
   -7.9920   15.9206   65.5536 H   0  0  0  0  0  0
   -8.0565   17.5068   66.1711 H   0  0  0  0  0  0
  -13.1098    9.6136   69.1997 H   0  0  0  0  0  0
  -12.1777    8.8965   67.5175 H   0  0  0  0  0  0
  -10.6555    4.8858   71.9951 H   0  0  0  0  0  0
  -10.0312    7.7131   77.4106 H   0  0  0  0  0  0
  1  2  1  0  0  0
  1 40  1  0  0  0
  1 41  1  0  0  0
  2  3  2  0  0  0
  2  4  2  0  0  0
  2  5  1  0  0  0
  5  6  2  0  0  0
  5 39  1  0  0  0
  6  7  1  0  0  0
  7  8  2  0  0  0
  8  9  1  0  0  0
  8 38  1  0  0  0
  9 10  1  0  0  0
 10 11  2  0  0  0
 10 37  1  0  0  0
 11 12  1  0  0  0
 12 13  2  0  0  0
 13 14  1  0  0  0
 14 15  1  0  0  0
 14 37  2  0  0  0
 15 16  1  0  0  0
 15 42  1  0  0  0
 16 17  2  0  0  0
 16 18  1  0  0  0
 18 19  1  0  0  0
 18 43  1  0  0  0
 19 20  2  0  0  0
 19 36  1  0  0  0
 20 21  1  0  0  0
 21 22  2  0  0  0
 22 23  1  0  0  0
 22 35  1  0  0  0
 23 24  1  0  0  0
 24 25  1  0  0  0
 25 26  1  0  0  0
 25 44  1  0  0  0
 26 27  2  0  0  0
 26 28  1  0  0  0
 28 29  1  0  0  0
 28 34  1  0  0  0
 29 30  1  0  0  0
 30 31  1  0  0  0
 31 32  1  0  0  0
 31 33  1  0  0  0
 32 45  1  0  0  0
 33 34  1  0  0  0
 35 36  2  0  0  0
 38 39  2  0  0  0
M  END
>  <AUTHOR>
    GENERATED BY OPEN BABEL 2.3.2

>  <CHROM.1>
178.69828008,111.10294008,130.30546393,-147.20765570,-158.57601936,-88.86285610
-131.66477261,116.59305619,61.96004793,152.86061792,169.85278604,-176.05696194
-10.60880663,10.16117221,70.33490433,-1.93814230,-1.38751693,2.23460347

>  <COMPND>
    UNNAMED

>  <MASTER>
        0    0    0    0    0    0    0    0   72    0   72    0

>  <Name>
ligands/mol3.pdb

>  <RI>
3.37503e+07

>  <Rbt.Current_Directory>
/home/rodrigo/Desktop/Rodrigo/Proyectos/test_OCONDOR/OCONDOR

>  <Rbt.Executable>
rbdock ($Id: //depot/dev/client3/rdock/2013.1/src/exe/rbdock.cxx#4 $)

>  <Rbt.Library>
libRbt.so (2013.1, Build901 2013/11/27)

>  <Rbt.Parameter_File>
dock.prm

>  <Rbt.Receptor>
rdock.prm

>  <SCORE>
-22.2009

>  <SCORE.INTER>
-19.3525

>  <SCORE.INTER.CONST>
1

>  <SCORE.INTER.POLAR>
-2.01162

>  <SCORE.INTER.REPUL>
0.0330984

>  <SCORE.INTER.ROT>
11

>  <SCORE.INTER.VDW>
-29.0785

>  <SCORE.INTER.norm>
-0.496219

>  <SCORE.INTRA>
-2.84842

>  <SCORE.INTRA.DIHEDRAL>
-0.553474

>  <SCORE.INTRA.DIHEDRAL.0>
10.441

>  <SCORE.INTRA.POLAR>
-0.458402

>  <SCORE.INTRA.POLAR.0>
0

>  <SCORE.INTRA.REPUL>
0

>  <SCORE.INTRA.REPUL.0>
0

>  <SCORE.INTRA.VDW>
-1.01312

>  <SCORE.INTRA.VDW.0>
-1.98888

>  <SCORE.INTRA.norm>
-0.0730365

>  <SCORE.RESTR>
0

>  <SCORE.RESTR.CAVITY>
0

>  <SCORE.RESTR.norm>
0

>  <SCORE.SYSTEM>
0

>  <SCORE.SYSTEM.CONST>
0

>  <SCORE.SYSTEM.DIHEDRAL>
0

>  <SCORE.SYSTEM.norm>
0

>  <SCORE.heavy>
39

>  <SCORE.norm>
-0.569255

$$$$
ligands/mol3.pdb
  rDOCK(R)          3D
libRbt.so/2013.1/901 2013/11/27
 45 48  0  0  0  0  0  0  0  0999 V2000
  -14.2932   16.5767   73.6287 N   0  0  0  0  0  0
  -12.7366   15.9145   73.6510 S   0  0  0  0  0  0
  -11.8404   16.8569   74.2840 O   0  0  0  0  0  0
  -12.8800   14.5613   74.1435 O   0  0  0  0  0  0
  -12.3250   15.8599   71.9304 C   0  0  0  0  0  0
  -13.3299   15.7723   70.9705 C   0  0  0  0  0  0
  -12.9884   15.7519   69.6166 C   0  0  0  0  0  0
  -11.6529   15.6956   69.1909 C   0  0  0  0  0  0
  -11.2378   15.5052   67.7235 C   0  0  0  0  0  0
  -11.7341   14.2645   66.9863 C   0  0  0  0  0  0
  -12.8149   14.3181   66.0944 C   0  0  0  0  0  0
  -13.1168   13.2448   65.2630 C   0  0  0  0  0  0
  -12.4584   12.0343   65.4302 C   0  0  0  0  0  0
  -11.5345   11.8771   66.4623 C   0  0  0  0  0  0
  -10.9897   10.6185   66.8059 N   0  0  0  0  0  0
   -9.8163   10.3875   67.4962 C   0  0  0  0  0  0
   -9.0573   11.2348   67.9700 O   0  0  0  0  0  0
   -9.5549    9.0230   67.5615 N   0  0  0  0  0  0
  -10.1841    8.2458   68.5550 C   0  0  0  0  0  0
  -10.8652    7.0982   68.1699 C   0  0  0  0  0  0
  -11.5099    6.3299   69.1375 C   0  0  0  0  0  0
  -11.4662    6.7449   70.4677 C   0  0  0  0  0  0
  -12.1371    5.9172   71.5371 C   0  0  0  0  0  0
  -11.8273    6.4072   72.9541 C   0  0  0  0  0  0
  -10.4228    6.2711   73.2987 N   0  0  0  0  0  0
   -9.6433    7.3893   73.5352 C   0  0  0  0  0  0
  -10.0697    8.5351   73.4529 O   0  0  0  0  0  0
   -8.1930    7.0533   73.8830 C   0  0  0  0  0  0
   -7.3114    8.3055   73.8632 C   0  0  0  0  0  0
   -7.4262    9.1489   75.1355 C   0  0  0  0  0  0
   -7.2030    8.3267   76.4017 C   0  0  0  0  0  0
   -5.8512    7.8741   76.4414 O   0  0  0  0  0  0
   -8.1268    7.1162   76.4614 C   0  0  0  0  0  0
   -8.0804    6.2638   75.1931 C   0  0  0  0  0  0
  -10.8192    7.8724   70.8502 N   0  0  0  0  0  0
  -10.1838    8.5901   69.8995 C   0  0  0  0  0  0
  -11.1474   13.0051   67.2118 C   0  0  0  0  0  0
  -10.6608   15.8232   70.1805 C   0  0  0  0  0  0
  -10.9914   15.9166   71.5392 C   0  0  0  0  0  0
  -14.6092   16.9726   74.5179 H   0  0  0  0  0  0
  -14.9704   15.9153   73.2322 H   0  0  0  0  0  0
  -11.3686    9.8246   66.3081 H   0  0  0  0  0  0
   -9.6605    8.6183   66.6387 H   0  0  0  0  0  0
   -9.9638    5.3816   73.1552 H   0  0  0  0  0  0
   -5.7066    7.3311   75.6471 H   0  0  0  0  0  0
  1  2  1  0  0  0
  1 40  1  0  0  0
  1 41  1  0  0  0
  2  3  2  0  0  0
  2  4  2  0  0  0
  2  5  1  0  0  0
  5  6  2  0  0  0
  5 39  1  0  0  0
  6  7  1  0  0  0
  7  8  2  0  0  0
  8  9  1  0  0  0
  8 38  1  0  0  0
  9 10  1  0  0  0
 10 11  2  0  0  0
 10 37  1  0  0  0
 11 12  1  0  0  0
 12 13  2  0  0  0
 13 14  1  0  0  0
 14 15  1  0  0  0
 14 37  2  0  0  0
 15 16  1  0  0  0
 15 42  1  0  0  0
 16 17  2  0  0  0
 16 18  1  0  0  0
 18 19  1  0  0  0
 18 43  1  0  0  0
 19 20  2  0  0  0
 19 36  1  0  0  0
 20 21  1  0  0  0
 21 22  2  0  0  0
 22 23  1  0  0  0
 22 35  1  0  0  0
 23 24  1  0  0  0
 24 25  1  0  0  0
 25 26  1  0  0  0
 25 44  1  0  0  0
 26 27  2  0  0  0
 26 28  1  0  0  0
 28 29  1  0  0  0
 28 34  1  0  0  0
 29 30  1  0  0  0
 30 31  1  0  0  0
 31 32  1  0  0  0
 31 33  1  0  0  0
 32 45  1  0  0  0
 33 34  1  0  0  0
 35 36  2  0  0  0
 38 39  2  0  0  0
M  END
>  <AUTHOR>
    GENERATED BY OPEN BABEL 2.3.2

>  <CHROM.1>
-47.72150224,-26.35741573,-57.72926160,101.14461758,158.98706943,-82.62211902
127.94934264,171.90996884,-64.88091184,114.92419251,168.75762633,-59.80321308
-10.76502238,11.11175678,71.07454009,-3.07215277,1.20229406,-2.13363784

>  <COMPND>
    UNNAMED

>  <MASTER>
        0    0    0    0    0    0    0    0   72    0   72    0

>  <Name>
ligands/mol3.pdb

>  <RI>
3.37503e+07

>  <Rbt.Current_Directory>
/home/rodrigo/Desktop/Rodrigo/Proyectos/test_OCONDOR/OCONDOR

>  <Rbt.Executable>
rbdock ($Id: //depot/dev/client3/rdock/2013.1/src/exe/rbdock.cxx#4 $)

>  <Rbt.Library>
libRbt.so (2013.1, Build901 2013/11/27)

>  <Rbt.Parameter_File>
dock.prm

>  <Rbt.Receptor>
rdock.prm

>  <SCORE>
-17.3492

>  <SCORE.INTER>
-15.3627

>  <SCORE.INTER.CONST>
1

>  <SCORE.INTER.POLAR>
-1.022

>  <SCORE.INTER.REPUL>
0.0320143

>  <SCORE.INTER.ROT>
11

>  <SCORE.INTER.VDW>
-28.4479

>  <SCORE.INTER.norm>
-0.393915

>  <SCORE.INTRA>
-1.98655

>  <SCORE.INTRA.DIHEDRAL>
-2.7599

>  <SCORE.INTRA.DIHEDRAL.0>
10.441

>  <SCORE.INTRA.POLAR>
0

>  <SCORE.INTRA.POLAR.0>
0

>  <SCORE.INTRA.REPUL>
0

>  <SCORE.INTRA.REPUL.0>
0

>  <SCORE.INTRA.VDW>
-0.606601

>  <SCORE.INTRA.VDW.0>
-1.98888

>  <SCORE.INTRA.norm>
-0.0509372

>  <SCORE.RESTR>
0

>  <SCORE.RESTR.CAVITY>
0

>  <SCORE.RESTR.norm>
0

>  <SCORE.SYSTEM>
0

>  <SCORE.SYSTEM.CONST>
0

>  <SCORE.SYSTEM.DIHEDRAL>
0

>  <SCORE.SYSTEM.norm>
0

>  <SCORE.heavy>
39

>  <SCORE.norm>
-0.444852

$$$$
ligands/mol3.pdb
  rDOCK(R)          3D
libRbt.so/2013.1/901 2013/11/27
 45 48  0  0  0  0  0  0  0  0999 V2000
  -14.4620   12.8744   72.5911 N   0  0  0  0  0  0
  -14.1518   14.5325   72.4637 S   0  0  0  0  0  0
  -15.3991   15.2199   72.2114 O   0  0  0  0  0  0
  -13.3161   14.8755   73.5942 O   0  0  0  0  0  0
  -13.1840   14.6230   70.9845 C   0  0  0  0  0  0
  -13.0672   15.8268   70.2945 C   0  0  0  0  0  0
  -12.2822   15.8854   69.1410 C   0  0  0  0  0  0
  -11.7001   14.7376   68.5828 C   0  0  0  0  0  0
  -10.9703   14.7289   67.2302 C   0  0  0  0  0  0
  -11.2898   13.6098   66.2430 C   0  0  0  0  0  0
  -11.9610   13.8579   65.0370 C   0  0  0  0  0  0
  -12.0491   12.8842   64.0479 C   0  0  0  0  0  0
  -11.6248   11.5894   64.3129 C   0  0  0  0  0  0
  -11.1605   11.2514   65.5832 C   0  0  0  0  0  0
  -10.9104    9.9139   65.9671 N   0  0  0  0  0  0
  -10.5743    9.4664   67.2294 C   0  0  0  0  0  0
  -10.4721   10.1456   68.2525 O   0  0  0  0  0  0
  -10.3099    8.1012   67.2035 N   0  0  0  0  0  0
  -10.4143    7.3545   68.3945 C   0  0  0  0  0  0
  -11.5893    6.6561   68.6412 C   0  0  0  0  0  0
  -11.7162    5.9296   69.8236 C   0  0  0  0  0  0
  -10.6625    5.9372   70.7365 C   0  0  0  0  0  0
  -10.7670    5.1393   72.0137 C   0  0  0  0  0  0
  -11.0133    6.0139   73.2460 C   0  0  0  0  0  0
  -10.7283    5.3206   74.4902 N   0  0  0  0  0  0
   -9.5893    5.6168   75.2174 C   0  0  0  0  0  0
   -8.7606    6.4456   74.8599 O   0  0  0  0  0  0
   -9.4554    4.7891   76.4958 C   0  0  0  0  0  0
   -8.0215    4.8226   77.0329 C   0  0  0  0  0  0
   -7.6968    6.0961   77.8176 C   0  0  0  0  0  0
   -8.7144    6.3768   78.9197 C   0  0  0  0  0  0
   -8.6283    5.3593   79.9154 O   0  0  0  0  0  0
  -10.1389    6.4141   78.3795 C   0  0  0  0  0  0
  -10.4979    5.1809   77.5503 C   0  0  0  0  0  0
   -9.5197    6.6299   70.5124 N   0  0  0  0  0  0
   -9.4097    7.3095   69.3511 C   0  0  0  0  0  0
  -10.9582   12.2727   66.5318 C   0  0  0  0  0  0
  -11.8041   13.5445   69.3215 C   0  0  0  0  0  0
  -12.5298   13.4872   70.5191 C   0  0  0  0  0  0
  -15.0215   12.5986   73.4024 H   0  0  0  0  0  0
  -13.5963   12.3293   72.5092 H   0  0  0  0  0  0
  -10.7383    9.2645   65.2120 H   0  0  0  0  0  0
  -10.8250    7.6757   66.4418 H   0  0  0  0  0  0
  -11.2412    4.4784   74.7142 H   0  0  0  0  0  0
   -7.7243    5.3844   80.2743 H   0  0  0  0  0  0
  1  2  1  0  0  0
  1 40  1  0  0  0
  1 41  1  0  0  0
  2  3  2  0  0  0
  2  4  2  0  0  0
  2  5  1  0  0  0
  5  6  2  0  0  0
  5 39  1  0  0  0
  6  7  1  0  0  0
  7  8  2  0  0  0
  8  9  1  0  0  0
  8 38  1  0  0  0
  9 10  1  0  0  0
 10 11  2  0  0  0
 10 37  1  0  0  0
 11 12  1  0  0  0
 12 13  2  0  0  0
 13 14  1  0  0  0
 14 15  1  0  0  0
 14 37  2  0  0  0
 15 16  1  0  0  0
 15 42  1  0  0  0
 16 17  2  0  0  0
 16 18  1  0  0  0
 18 19  1  0  0  0
 18 43  1  0  0  0
 19 20  2  0  0  0
 19 36  1  0  0  0
 20 21  1  0  0  0
 21 22  2  0  0  0
 22 23  1  0  0  0
 22 35  1  0  0  0
 23 24  1  0  0  0
 24 25  1  0  0  0
 25 26  1  0  0  0
 25 44  1  0  0  0
 26 27  2  0  0  0
 26 28  1  0  0  0
 28 29  1  0  0  0
 28 34  1  0  0  0
 29 30  1  0  0  0
 30 31  1  0  0  0
 31 32  1  0  0  0
 31 33  1  0  0  0
 32 45  1  0  0  0
 33 34  1  0  0  0
 35 36  2  0  0  0
 38 39  2  0  0  0
M  END
>  <AUTHOR>
    GENERATED BY OPEN BABEL 2.3.2

>  <CHROM.1>
-66.56485474,159.93940886,-133.86930224,111.87502200,-173.38236829,-157.62040693
97.10175980,-105.54684790,-163.12408045,105.83003785,162.50901764,60.28581162
-11.16824190,9.87870228,71.24618410,2.22441968,1.17528803,-1.45135525

>  <COMPND>
    UNNAMED

>  <MASTER>
        0    0    0    0    0    0    0    0   72    0   72    0

>  <Name>
ligands/mol3.pdb

>  <RI>
3.37503e+07

>  <Rbt.Current_Directory>
/home/rodrigo/Desktop/Rodrigo/Proyectos/test_OCONDOR/OCONDOR

>  <Rbt.Executable>
rbdock ($Id: //depot/dev/client3/rdock/2013.1/src/exe/rbdock.cxx#4 $)

>  <Rbt.Library>
libRbt.so (2013.1, Build901 2013/11/27)

>  <Rbt.Parameter_File>
dock.prm

>  <Rbt.Receptor>
rdock.prm

>  <SCORE>
-16.043

>  <SCORE.INTER>
-14.4865

>  <SCORE.INTER.CONST>
1

>  <SCORE.INTER.POLAR>
-0.736524

>  <SCORE.INTER.REPUL>
0.00608042

>  <SCORE.INTER.ROT>
11

>  <SCORE.INTER.VDW>
-28.4127

>  <SCORE.INTER.norm>
-0.371449

>  <SCORE.INTRA>
-1.55651

>  <SCORE.INTRA.DIHEDRAL>
-1.99385

>  <SCORE.INTRA.DIHEDRAL.0>
10.441

>  <SCORE.INTRA.POLAR>
0

>  <SCORE.INTRA.POLAR.0>
0

>  <SCORE.INTRA.REPUL>
0

>  <SCORE.INTRA.REPUL.0>
0

>  <SCORE.INTRA.VDW>
-0.559588

>  <SCORE.INTRA.VDW.0>
-1.98888

>  <SCORE.INTRA.norm>
-0.0399106

>  <SCORE.RESTR>
0

>  <SCORE.RESTR.CAVITY>
0

>  <SCORE.RESTR.norm>
0

>  <SCORE.SYSTEM>
0

>  <SCORE.SYSTEM.CONST>
0

>  <SCORE.SYSTEM.DIHEDRAL>
0

>  <SCORE.SYSTEM.norm>
0

>  <SCORE.heavy>
39

>  <SCORE.norm>
-0.41136

$$$$
ligands/mol3.pdb
  rDOCK(R)          3D
libRbt.so/2013.1/901 2013/11/27
 45 48  0  0  0  0  0  0  0  0999 V2000
  -10.3760    4.4723   75.3066 N   0  0  0  0  0  0
   -9.5089    5.3201   74.1270 S   0  0  0  0  0  0
   -8.6383    6.2700   74.7842 O   0  0  0  0  0  0
   -8.9885    4.3249   73.2144 O   0  0  0  0  0  0
  -10.7821    6.2395   73.3106 C   0  0  0  0  0  0
  -11.4289    5.7076   72.1982 C   0  0  0  0  0  0
  -12.4459    6.4373   71.5792 C   0  0  0  0  0  0
  -12.7590    7.7480   71.9691 C   0  0  0  0  0  0
  -13.7521    8.6439   71.2119 C   0  0  0  0  0  0
  -13.3449   10.0841   70.9134 C   0  0  0  0  0  0
  -13.2504   11.0500   71.9256 C   0  0  0  0  0  0
  -12.6672   12.2897   71.6862 C   0  0  0  0  0  0
  -12.3283   12.6557   70.3909 C   0  0  0  0  0  0
  -12.6194   11.8058   69.3248 C   0  0  0  0  0  0
  -12.4857   12.2091   67.9764 N   0  0  0  0  0  0
  -12.1771   13.4752   67.5201 C   0  0  0  0  0  0
  -11.9241   14.4676   68.2054 O   0  0  0  0  0  0
  -12.2289   13.5141   66.1307 N   0  0  0  0  0  0
  -11.3131   12.7459   65.3835 C   0  0  0  0  0  0
  -11.4288   12.7334   63.9994 C   0  0  0  0  0  0
  -10.5440   11.9629   63.2474 C   0  0  0  0  0  0
   -9.5741   11.2109   63.9089 C   0  0  0  0  0  0
   -8.5896   10.3865   63.1152 C   0  0  0  0  0  0
   -8.8327    8.8803   63.2418 C   0  0  0  0  0  0
   -9.0123    8.4563   64.6194 N   0  0  0  0  0  0
   -8.8968    7.1223   64.9673 C   0  0  0  0  0  0
   -8.6613    6.2345   64.1564 O   0  0  0  0  0  0
   -9.1180    6.8645   66.4580 C   0  0  0  0  0  0
   -8.1141    7.6441   67.3126 C   0  0  0  0  0  0
   -8.4939    9.1143   67.5055 C   0  0  0  0  0  0
   -9.9200    9.2849   68.0213 C   0  0  0  0  0  0
  -10.0130    8.7566   69.3428 O   0  0  0  0  0  0
  -10.9324    8.5690   67.1354 C   0  0  0  0  0  0
  -10.5736    7.1055   66.8769 C   0  0  0  0  0  0
   -9.4651   11.2031   65.2595 N   0  0  0  0  0  0
  -10.3189   11.9732   65.9671 C   0  0  0  0  0  0
  -13.0911   10.5063   69.5949 C   0  0  0  0  0  0
  -12.1155    8.2439   73.1180 C   0  0  0  0  0  0
  -11.1429    7.4934   73.7924 C   0  0  0  0  0  0
  -11.0296    5.0375   75.8548 H   0  0  0  0  0  0
   -9.7482    3.9161   75.8980 H   0  0  0  0  0  0
  -12.8717   11.5775   67.2881 H   0  0  0  0  0  0
  -13.1845   13.3668   65.8280 H   0  0  0  0  0  0
   -9.4314    9.0956   65.2815 H   0  0  0  0  0  0
  -10.8957    8.9851   69.6821 H   0  0  0  0  0  0
  1  2  1  0  0  0
  1 40  1  0  0  0
  1 41  1  0  0  0
  2  3  2  0  0  0
  2  4  2  0  0  0
  2  5  1  0  0  0
  5  6  2  0  0  0
  5 39  1  0  0  0
  6  7  1  0  0  0
  7  8  2  0  0  0
  8  9  1  0  0  0
  8 38  1  0  0  0
  9 10  1  0  0  0
 10 11  2  0  0  0
 10 37  1  0  0  0
 11 12  1  0  0  0
 12 13  2  0  0  0
 13 14  1  0  0  0
 14 15  1  0  0  0
 14 37  2  0  0  0
 15 16  1  0  0  0
 15 42  1  0  0  0
 16 17  2  0  0  0
 16 18  1  0  0  0
 18 19  1  0  0  0
 18 43  1  0  0  0
 19 20  2  0  0  0
 19 36  1  0  0  0
 20 21  1  0  0  0
 21 22  2  0  0  0
 22 23  1  0  0  0
 22 35  1  0  0  0
 23 24  1  0  0  0
 24 25  1  0  0  0
 25 26  1  0  0  0
 25 44  1  0  0  0
 26 27  2  0  0  0
 26 28  1  0  0  0
 28 29  1  0  0  0
 28 34  1  0  0  0
 29 30  1  0  0  0
 30 31  1  0  0  0
 31 32  1  0  0  0
 31 33  1  0  0  0
 32 45  1  0  0  0
 33 34  1  0  0  0
 35 36  2  0  0  0
 38 39  2  0  0  0
M  END
>  <AUTHOR>
    GENERATED BY OPEN BABEL 2.3.2

>  <CHROM.1>
65.34850539,-91.35398350,-133.58094094,-70.70037635,-5.89970820,-64.67840490
176.21942462,-109.37937254,-47.84145330,-163.14468381,-59.09455316,172.73684392
-10.72248368,9.11907336,68.89311996,-1.61824740,0.98085295,-1.00642069

>  <COMPND>
    UNNAMED

>  <MASTER>
        0    0    0    0    0    0    0    0   72    0   72    0

>  <Name>
ligands/mol3.pdb

>  <RI>
3.37503e+07

>  <Rbt.Current_Directory>
/home/rodrigo/Desktop/Rodrigo/Proyectos/test_OCONDOR/OCONDOR

>  <Rbt.Executable>
rbdock ($Id: //depot/dev/client3/rdock/2013.1/src/exe/rbdock.cxx#4 $)

>  <Rbt.Library>
libRbt.so (2013.1, Build901 2013/11/27)

>  <Rbt.Parameter_File>
dock.prm

>  <Rbt.Receptor>
rdock.prm

>  <SCORE>
-18.5399

>  <SCORE.INTER>
-11.361

>  <SCORE.INTER.CONST>
1

>  <SCORE.INTER.POLAR>
-0.879598

>  <SCORE.INTER.REPUL>
0

>  <SCORE.INTER.ROT>
11

>  <SCORE.INTER.VDW>
-24.7704

>  <SCORE.INTER.norm>
-0.291307

>  <SCORE.INTRA>
-7.1789

>  <SCORE.INTRA.DIHEDRAL>
-3.50651

>  <SCORE.INTRA.DIHEDRAL.0>
10.441

>  <SCORE.INTRA.POLAR>
-0.58369

>  <SCORE.INTRA.POLAR.0>
0

>  <SCORE.INTRA.REPUL>
0

>  <SCORE.INTRA.REPUL.0>
0

>  <SCORE.INTRA.VDW>
-3.4411

>  <SCORE.INTRA.VDW.0>
-1.98888

>  <SCORE.INTRA.norm>
-0.184074

>  <SCORE.RESTR>
0

>  <SCORE.RESTR.CAVITY>
0

>  <SCORE.RESTR.norm>
0

>  <SCORE.SYSTEM>
0

>  <SCORE.SYSTEM.CONST>
0

>  <SCORE.SYSTEM.DIHEDRAL>
0

>  <SCORE.SYSTEM.norm>
0

>  <SCORE.heavy>
39

>  <SCORE.norm>
-0.475382

$$$$
ligands/mol3.pdb
  rDOCK(R)          3D
libRbt.so/2013.1/901 2013/11/27
 45 48  0  0  0  0  0  0  0  0999 V2000
  -13.4178   15.9156   70.4324 N   0  0  0  0  0  0
  -11.7889   15.8779   69.9770 S   0  0  0  0  0  0
  -11.4181   17.1814   69.4714 O   0  0  0  0  0  0
  -11.0759   15.2638   71.0764 O   0  0  0  0  0  0
  -11.8061   14.7589   68.6058 C   0  0  0  0  0  0
  -12.2206   13.4411   68.7802 C   0  0  0  0  0  0
  -12.2484   12.5775   67.6832 C   0  0  0  0  0  0
  -11.7561   12.9609   66.4268 C   0  0  0  0  0  0
  -11.6147   11.9944   65.2402 C   0  0  0  0  0  0
  -10.8591   10.6865   65.4585 C   0  0  0  0  0  0
  -10.1128   10.0848   64.4350 C   0  0  0  0  0  0
   -9.2518    9.0249   64.6987 C   0  0  0  0  0  0
   -9.2516    8.4302   65.9529 C   0  0  0  0  0  0
  -10.1486    8.8582   66.9305 C   0  0  0  0  0  0
  -10.3336    8.1608   68.1462 N   0  0  0  0  0  0
  -11.0296    8.6027   69.2539 C   0  0  0  0  0  0
  -11.6461    9.6637   69.3658 O   0  0  0  0  0  0
  -10.9135    7.6870   70.2944 N   0  0  0  0  0  0
  -10.1090    8.0045   71.4075 C   0  0  0  0  0  0
   -8.7939    8.3942   71.1886 C   0  0  0  0  0  0
   -7.9795    8.6916   72.2795 C   0  0  0  0  0  0
   -8.5048    8.5739   73.5656 C   0  0  0  0  0  0
   -7.6493    8.9128   74.7623 C   0  0  0  0  0  0
   -7.4481    7.7259   75.7083 C   0  0  0  0  0  0
   -8.7028    7.1292   76.1321 N   0  0  0  0  0  0
   -8.8078    6.5088   77.3641 C   0  0  0  0  0  0
   -7.8712    6.4081   78.1476 O   0  0  0  0  0  0
  -10.2000    5.9396   77.6382 C   0  0  0  0  0  0
  -10.3788    4.5667   76.9831 C   0  0  0  0  0  0
   -9.7489    3.4250   77.7849 C   0  0  0  0  0  0
  -10.2053    3.4146   79.2411 C   0  0  0  0  0  0
  -11.5981    3.1133   79.2997 O   0  0  0  0  0  0
   -9.9659    4.7579   79.9196 C   0  0  0  0  0  0
  -10.5398    5.9371   79.1337 C   0  0  0  0  0  0
   -9.7810    8.1773   73.7894 N   0  0  0  0  0  0
  -10.5586    7.9146   72.7175 C   0  0  0  0  0  0
  -10.9220   10.0110   66.6917 C   0  0  0  0  0  0
  -11.3792   14.3077   66.2719 C   0  0  0  0  0  0
  -11.4140   15.2048   67.3480 C   0  0  0  0  0  0
  -13.7245   15.1303   71.0123 H   0  0  0  0  0  0
  -14.0255   16.0618   69.6184 H   0  0  0  0  0  0
   -9.7155    7.3763   68.3016 H   0  0  0  0  0  0
  -11.8375    7.3756   70.5697 H   0  0  0  0  0  0
   -9.4317    6.9757   75.4482 H   0  0  0  0  0  0
  -11.7118    2.2116   78.9525 H   0  0  0  0  0  0
  1  2  1  0  0  0
  1 40  1  0  0  0
  1 41  1  0  0  0
  2  3  2  0  0  0
  2  4  2  0  0  0
  2  5  1  0  0  0
  5  6  2  0  0  0
  5 39  1  0  0  0
  6  7  1  0  0  0
  7  8  2  0  0  0
  8  9  1  0  0  0
  8 38  1  0  0  0
  9 10  1  0  0  0
 10 11  2  0  0  0
 10 37  1  0  0  0
 11 12  1  0  0  0
 12 13  2  0  0  0
 13 14  1  0  0  0
 14 15  1  0  0  0
 14 37  2  0  0  0
 15 16  1  0  0  0
 15 42  1  0  0  0
 16 17  2  0  0  0
 16 18  1  0  0  0
 18 19  1  0  0  0
 18 43  1  0  0  0
 19 20  2  0  0  0
 19 36  1  0  0  0
 20 21  1  0  0  0
 21 22  2  0  0  0
 22 23  1  0  0  0
 22 35  1  0  0  0
 23 24  1  0  0  0
 24 25  1  0  0  0
 25 26  1  0  0  0
 25 44  1  0  0  0
 26 27  2  0  0  0
 26 28  1  0  0  0
 28 29  1  0  0  0
 28 34  1  0  0  0
 29 30  1  0  0  0
 30 31  1  0  0  0
 31 32  1  0  0  0
 31 33  1  0  0  0
 32 45  1  0  0  0
 33 34  1  0  0  0
 35 36  2  0  0  0
 38 39  2  0  0  0
M  END
>  <AUTHOR>
    GENERATED BY OPEN BABEL 2.3.2

>  <CHROM.1>
-165.51263530,-61.17474305,-52.18315390,-147.69083087,169.17236009,107.63323065
-53.18837869,-119.36172952,-53.88686426,-150.57837251,82.35253171,63.82656564
-10.41304386,9.64565183,71.61481372,2.20814291,1.34853843,-1.53897118

>  <COMPND>
    UNNAMED

>  <MASTER>
        0    0    0    0    0    0    0    0   72    0   72    0

>  <Name>
ligands/mol3.pdb

>  <RI>
3.37503e+07

>  <Rbt.Current_Directory>
/home/rodrigo/Desktop/Rodrigo/Proyectos/test_OCONDOR/OCONDOR

>  <Rbt.Executable>
rbdock ($Id: //depot/dev/client3/rdock/2013.1/src/exe/rbdock.cxx#4 $)

>  <Rbt.Library>
libRbt.so (2013.1, Build901 2013/11/27)

>  <Rbt.Parameter_File>
dock.prm

>  <Rbt.Receptor>
rdock.prm

>  <SCORE>
-15.2889

>  <SCORE.INTER>
-10.6417

>  <SCORE.INTER.CONST>
1

>  <SCORE.INTER.POLAR>
-0.843778

>  <SCORE.INTER.REPUL>
0

>  <SCORE.INTER.ROT>
11

>  <SCORE.INTER.VDW>
-24.1728

>  <SCORE.INTER.norm>
-0.272863

>  <SCORE.INTRA>
-4.64723

>  <SCORE.INTRA.DIHEDRAL>
-2.36266

>  <SCORE.INTRA.DIHEDRAL.0>
10.441

>  <SCORE.INTRA.POLAR>
-0.499562

>  <SCORE.INTRA.POLAR.0>
0

>  <SCORE.INTRA.REPUL>
0

>  <SCORE.INTRA.REPUL.0>
0

>  <SCORE.INTRA.VDW>
-1.76739

>  <SCORE.INTRA.VDW.0>
-1.98888

>  <SCORE.INTRA.norm>
-0.11916

>  <SCORE.RESTR>
0

>  <SCORE.RESTR.CAVITY>
0

>  <SCORE.RESTR.norm>
0

>  <SCORE.SYSTEM>
0

>  <SCORE.SYSTEM.CONST>
0

>  <SCORE.SYSTEM.DIHEDRAL>
0

>  <SCORE.SYSTEM.norm>
0

>  <SCORE.heavy>
39

>  <SCORE.norm>
-0.392023

$$$$
ligands/mol3.pdb
  rDOCK(R)          3D
libRbt.so/2013.1/901 2013/11/27
 45 48  0  0  0  0  0  0  0  0999 V2000
   -6.8837   17.6303   67.8468 N   0  0  0  0  0  0
   -6.8194   17.2029   66.2112 S   0  0  0  0  0  0
   -7.2628   18.3293   65.4195 O   0  0  0  0  0  0
   -5.5218   16.5974   66.0022 O   0  0  0  0  0  0
   -8.0640   15.9494   66.0994 C   0  0  0  0  0  0
   -9.2575   16.2028   65.4283 C   0  0  0  0  0  0
  -10.2196   15.1954   65.3312 C   0  0  0  0  0  0
  -10.0749   13.9673   65.9935 C   0  0  0  0  0  0
  -11.1782   12.8988   66.0500 C   0  0  0  0  0  0
  -10.7672   11.4304   65.9860 C   0  0  0  0  0  0
   -9.9368   10.9394   64.9683 C   0  0  0  0  0  0
   -9.3871    9.6638   65.0395 C   0  0  0  0  0  0
   -9.7961    8.7896   66.0370 C   0  0  0  0  0  0
  -10.7937    9.1689   66.9340 C   0  0  0  0  0  0
  -11.3903    8.2559   67.8336 N   0  0  0  0  0  0
  -11.1801    6.8922   67.8864 C   0  0  0  0  0  0
  -10.4067    6.2350   67.1876 O   0  0  0  0  0  0
  -12.0135    6.3113   68.8365 N   0  0  0  0  0  0
  -11.5902    6.2460   70.1794 C   0  0  0  0  0  0
  -12.2161    7.0600   71.1148 C   0  0  0  0  0  0
  -11.7955    7.0222   72.4428 C   0  0  0  0  0  0
  -10.7437    6.1769   72.7935 C   0  0  0  0  0  0
  -10.2854    6.1011   74.2299 C   0  0  0  0  0  0
   -9.3973    7.2800   74.6366 C   0  0  0  0  0  0
   -8.3696    7.5721   73.6525 N   0  0  0  0  0  0
   -8.6069    8.4760   72.6324 C   0  0  0  0  0  0
   -9.6751    9.0579   72.4853 O   0  0  0  0  0  0
   -7.4137    8.6557   71.6936 C   0  0  0  0  0  0
   -7.1136    7.3670   70.9221 C   0  0  0  0  0  0
   -8.0344    7.1519   69.7184 C   0  0  0  0  0  0
   -8.0742    8.3634   68.7913 C   0  0  0  0  0  0
   -6.7952    8.5396   68.1855 O   0  0  0  0  0  0
   -8.4410    9.6386   69.5408 C   0  0  0  0  0  0
   -7.5760    9.8759   70.7788 C   0  0  0  0  0  0
  -10.1155    5.3925   71.8846 N   0  0  0  0  0  0
  -10.5530    5.4293   70.6079 C   0  0  0  0  0  0
  -11.2473   10.5023   66.9290 C   0  0  0  0  0  0
   -8.8441   13.7265   66.6316 C   0  0  0  0  0  0
   -7.8402   14.7035   66.6757 C   0  0  0  0  0  0
   -7.7863   17.9923   68.1656 H   0  0  0  0  0  0
   -6.1036   18.2478   68.0981 H   0  0  0  0  0  0
  -12.2072    8.5925   68.3246 H   0  0  0  0  0  0
  -12.9434    6.7043   68.7498 H   0  0  0  0  0  0
   -7.5659    6.9624   73.5829 H   0  0  0  0  0  0
   -6.1573    8.6992   68.9025 H   0  0  0  0  0  0
  1  2  1  0  0  0
  1 40  1  0  0  0
  1 41  1  0  0  0
  2  3  2  0  0  0
  2  4  2  0  0  0
  2  5  1  0  0  0
  5  6  2  0  0  0
  5 39  1  0  0  0
  6  7  1  0  0  0
  7  8  2  0  0  0
  8  9  1  0  0  0
  8 38  1  0  0  0
  9 10  1  0  0  0
 10 11  2  0  0  0
 10 37  1  0  0  0
 11 12  1  0  0  0
 12 13  2  0  0  0
 13 14  1  0  0  0
 14 15  1  0  0  0
 14 37  2  0  0  0
 15 16  1  0  0  0
 15 42  1  0  0  0
 16 17  2  0  0  0
 16 18  1  0  0  0
 18 19  1  0  0  0
 18 43  1  0  0  0
 19 20  2  0  0  0
 19 36  1  0  0  0
 20 21  1  0  0  0
 21 22  2  0  0  0
 22 23  1  0  0  0
 22 35  1  0  0  0
 23 24  1  0  0  0
 24 25  1  0  0  0
 25 26  1  0  0  0
 25 44  1  0  0  0
 26 27  2  0  0  0
 26 28  1  0  0  0
 28 29  1  0  0  0
 28 34  1  0  0  0
 29 30  1  0  0  0
 30 31  1  0  0  0
 31 32  1  0  0  0
 31 33  1  0  0  0
 32 45  1  0  0  0
 33 34  1  0  0  0
 35 36  2  0  0  0
 38 39  2  0  0  0
M  END
>  <AUTHOR>
    GENERATED BY OPEN BABEL 2.3.2

>  <CHROM.1>
53.40611590,109.37276629,143.29614501,-52.26409732,-5.91521996,-87.03506410
109.10622243,-78.65297788,-45.98976264,90.82146347,65.43797445,-61.28589292
-9.22713186,10.42738797,68.69370044,-1.22645684,0.94915790,2.32825149

>  <COMPND>
    UNNAMED

>  <MASTER>
        0    0    0    0    0    0    0    0   72    0   72    0

>  <Name>
ligands/mol3.pdb

>  <RI>
3.37503e+07

>  <Rbt.Current_Directory>
/home/rodrigo/Desktop/Rodrigo/Proyectos/test_OCONDOR/OCONDOR

>  <Rbt.Executable>
rbdock ($Id: //depot/dev/client3/rdock/2013.1/src/exe/rbdock.cxx#4 $)

>  <Rbt.Library>
libRbt.so (2013.1, Build901 2013/11/27)

>  <Rbt.Parameter_File>
dock.prm

>  <Rbt.Receptor>
rdock.prm

>  <SCORE>
-16.3221

>  <SCORE.INTER>
-9.59817

>  <SCORE.INTER.CONST>
1

>  <SCORE.INTER.POLAR>
-0.902341

>  <SCORE.INTER.REPUL>
0.00581643

>  <SCORE.INTER.ROT>
11

>  <SCORE.INTER.VDW>
-22.9593

>  <SCORE.INTER.norm>
-0.246107

>  <SCORE.INTRA>
-6.72394

>  <SCORE.INTRA.DIHEDRAL>
-3.39746

>  <SCORE.INTRA.DIHEDRAL.0>
10.441

>  <SCORE.INTRA.POLAR>
0

>  <SCORE.INTRA.POLAR.0>
0

>  <SCORE.INTRA.REPUL>
0

>  <SCORE.INTRA.REPUL.0>
0

>  <SCORE.INTRA.VDW>
-5.02521

>  <SCORE.INTRA.VDW.0>
-1.98888

>  <SCORE.INTRA.norm>
-0.172409

>  <SCORE.RESTR>
0

>  <SCORE.RESTR.CAVITY>
0

>  <SCORE.RESTR.norm>
0

>  <SCORE.SYSTEM>
0

>  <SCORE.SYSTEM.CONST>
0

>  <SCORE.SYSTEM.DIHEDRAL>
0

>  <SCORE.SYSTEM.norm>
0

>  <SCORE.heavy>
39

>  <SCORE.norm>
-0.418516

$$$$
ligands/mol3.pdb
  rDOCK(R)          3D
libRbt.so/2013.1/901 2013/11/27
 45 48  0  0  0  0  0  0  0  0999 V2000
   -6.7660    5.6230   77.4642 N   0  0  0  0  0  0
   -8.0843    6.6597   77.6865 S   0  0  0  0  0  0
   -8.7347    6.3225   78.9336 O   0  0  0  0  0  0
   -7.5953    7.9968   77.4274 O   0  0  0  0  0  0
   -9.1683    6.1790   76.3725 C   0  0  0  0  0  0
   -9.8385    4.9596   76.4257 C   0  0  0  0  0  0
  -10.7065    4.6056   75.3907 C   0  0  0  0  0  0
  -10.8361    5.3877   74.2334 C   0  0  0  0  0  0
  -11.6496    4.9543   73.0035 C   0  0  0  0  0  0
  -11.0000    5.0738   71.6277 C   0  0  0  0  0  0
   -9.8887    4.2990   71.2657 C   0  0  0  0  0  0
   -9.4442    4.2478   69.9488 C   0  0  0  0  0  0
   -9.9884    5.1044   69.0018 C   0  0  0  0  0  0
  -10.9404    6.0504   69.3789 C   0  0  0  0  0  0
  -11.3753    7.0759   68.5083 N   0  0  0  0  0  0
  -10.5863    7.8326   67.6649 C   0  0  0  0  0  0
   -9.3713    7.7224   67.4910 O   0  0  0  0  0  0
  -11.3505    8.8094   67.0352 N   0  0  0  0  0  0
  -11.5534   10.0480   67.6768 C   0  0  0  0  0  0
  -11.7779   10.0586   69.0474 C   0  0  0  0  0  0
  -12.0005   11.2732   69.6933 C   0  0  0  0  0  0
  -12.0075   12.4465   68.9402 C   0  0  0  0  0  0
  -12.2233   13.7767   69.6205 C   0  0  0  0  0  0
  -10.9481   14.6199   69.7021 C   0  0  0  0  0  0
  -10.3624   14.8764   68.3978 N   0  0  0  0  0  0
   -9.0619   15.3351   68.2868 C   0  0  0  0  0  0
   -8.3463   15.5666   69.2541 O   0  0  0  0  0  0
   -8.6172   15.5486   66.8398 C   0  0  0  0  0  0
   -9.3749   16.7106   66.1904 C   0  0  0  0  0  0
   -8.8184   18.0852   66.5694 C   0  0  0  0  0  0
   -7.3153   18.1921   66.3281 C   0  0  0  0  0  0
   -7.0530   18.1180   64.9282 O   0  0  0  0  0  0
   -6.5481   17.0779   67.0298 C   0  0  0  0  0  0
   -7.0945   15.6848   66.7167 C   0  0  0  0  0  0
  -11.8071   12.4440   67.6001 N   0  0  0  0  0  0
  -11.5724   11.2586   66.9981 C   0  0  0  0  0  0
  -11.4709    6.0049   70.6830 C   0  0  0  0  0  0
  -10.1763    6.6305   74.2247 C   0  0  0  0  0  0
   -9.3576    7.0308   75.2894 C   0  0  0  0  0  0
   -6.0686    5.6412   78.2128 H   0  0  0  0  0  0
   -6.3473    5.7517   76.5361 H   0  0  0  0  0  0
  -12.3014    7.4401   68.6857 H   0  0  0  0  0  0
  -11.0268    8.9236   66.0820 H   0  0  0  0  0  0
  -10.9657   14.9283   67.5879 H   0  0  0  0  0  0
   -6.0938   18.2294   64.8094 H   0  0  0  0  0  0
  1  2  1  0  0  0
  1 40  1  0  0  0
  1 41  1  0  0  0
  2  3  2  0  0  0
  2  4  2  0  0  0
  2  5  1  0  0  0
  5  6  2  0  0  0
  5 39  1  0  0  0
  6  7  1  0  0  0
  7  8  2  0  0  0
  8  9  1  0  0  0
  8 38  1  0  0  0
  9 10  1  0  0  0
 10 11  2  0  0  0
 10 37  1  0  0  0
 11 12  1  0  0  0
 12 13  2  0  0  0
 13 14  1  0  0  0
 14 15  1  0  0  0
 14 37  2  0  0  0
 15 16  1  0  0  0
 15 42  1  0  0  0
 16 17  2  0  0  0
 16 18  1  0  0  0
 18 19  1  0  0  0
 18 43  1  0  0  0
 19 20  2  0  0  0
 19 36  1  0  0  0
 20 21  1  0  0  0
 21 22  2  0  0  0
 22 23  1  0  0  0
 22 35  1  0  0  0
 23 24  1  0  0  0
 24 25  1  0  0  0
 25 26  1  0  0  0
 25 44  1  0  0  0
 26 27  2  0  0  0
 26 28  1  0  0  0
 28 29  1  0  0  0
 28 34  1  0  0  0
 29 30  1  0  0  0
 30 31  1  0  0  0
 31 32  1  0  0  0
 31 33  1  0  0  0
 32 45  1  0  0  0
 33 34  1  0  0  0
 35 36  2  0  0  0
 38 39  2  0  0  0
M  END
>  <AUTHOR>
    GENERATED BY OPEN BABEL 2.3.2

>  <CHROM.1>
-57.86512359,71.75969335,-131.49322557,65.79310863,-41.88967858,86.56741587
-39.85242783,107.19312275,57.45938542,-164.46454887,67.80133378,177.50515287
-9.73764217,9.98569212,70.72785049,-1.63843558,-1.10656023,-0.74967541

>  <COMPND>
    UNNAMED

>  <MASTER>
        0    0    0    0    0    0    0    0   72    0   72    0

>  <Name>
ligands/mol3.pdb

>  <RI>
3.37503e+07

>  <Rbt.Current_Directory>
/home/rodrigo/Desktop/Rodrigo/Proyectos/test_OCONDOR/OCONDOR

>  <Rbt.Executable>
rbdock ($Id: //depot/dev/client3/rdock/2013.1/src/exe/rbdock.cxx#4 $)

>  <Rbt.Library>
libRbt.so (2013.1, Build901 2013/11/27)

>  <Rbt.Parameter_File>
dock.prm

>  <Rbt.Receptor>
rdock.prm

>  <SCORE>
-11.2044

>  <SCORE.INTER>
-9.37178

>  <SCORE.INTER.CONST>
1

>  <SCORE.INTER.POLAR>
-0.448798

>  <SCORE.INTER.REPUL>
0.0436159

>  <SCORE.INTER.ROT>
11

>  <SCORE.INTER.VDW>
-24.4639

>  <SCORE.INTER.norm>
-0.240302

>  <SCORE.INTRA>
-1.83259

>  <SCORE.INTRA.DIHEDRAL>
0.0340021

>  <SCORE.INTRA.DIHEDRAL.0>
10.441

>  <SCORE.INTRA.POLAR>
0

>  <SCORE.INTRA.POLAR.0>
0

>  <SCORE.INTRA.REPUL>
0

>  <SCORE.INTRA.REPUL.0>
0

>  <SCORE.INTRA.VDW>
-1.84959

>  <SCORE.INTRA.VDW.0>
-1.98888

>  <SCORE.INTRA.norm>
-0.0469895

>  <SCORE.RESTR>
0

>  <SCORE.RESTR.CAVITY>
0

>  <SCORE.RESTR.norm>
0

>  <SCORE.SYSTEM>
0

>  <SCORE.SYSTEM.CONST>
0

>  <SCORE.SYSTEM.DIHEDRAL>
0

>  <SCORE.SYSTEM.norm>
0

>  <SCORE.heavy>
39

>  <SCORE.norm>
-0.287291

$$$$
ligands/mol3.pdb
  rDOCK(R)          3D
libRbt.so/2013.1/901 2013/11/27
 45 48  0  0  0  0  0  0  0  0999 V2000
  -10.4886    8.8781   60.6719 N   0  0  0  0  0  0
   -8.9753    8.9052   61.4276 S   0  0  0  0  0  0
   -8.7457    7.6212   62.0527 O   0  0  0  0  0  0
   -8.0489    9.4492   60.4580 O   0  0  0  0  0  0
   -9.2192   10.0912   62.7186 C   0  0  0  0  0  0
   -9.8809   11.2880   62.4567 C   0  0  0  0  0  0
  -10.0836   12.2031   63.4919 C   0  0  0  0  0  0
   -9.5348   12.0101   64.7684 C   0  0  0  0  0  0
   -9.5922   13.0649   65.8846 C   0  0  0  0  0  0
  -10.5182   12.8128   67.0713 C   0  0  0  0  0  0
  -11.0844   13.8664   67.8033 C   0  0  0  0  0  0
  -12.0950   13.6376   68.7311 C   0  0  0  0  0  0
  -12.4362   12.3368   69.0749 C   0  0  0  0  0  0
  -11.7331   11.2622   68.5321 C   0  0  0  0  0  0
  -11.8979    9.9372   68.9966 N   0  0  0  0  0  0
  -11.0210    8.8854   68.8199 C   0  0  0  0  0  0
   -9.9226    8.9232   68.2626 O   0  0  0  0  0  0
  -11.5650    7.7117   69.3307 N   0  0  0  0  0  0
  -11.2971    7.3501   70.6666 C   0  0  0  0  0  0
  -11.7524    6.1214   71.1275 C   0  0  0  0  0  0
  -11.5134    5.7578   72.4513 C   0  0  0  0  0  0
  -10.8355    6.6476   73.2835 C   0  0  0  0  0  0
  -10.5444    6.2669   74.7150 C   0  0  0  0  0  0
   -9.0937    5.8289   74.9335 C   0  0  0  0  0  0
   -8.6913    4.7587   74.0377 N   0  0  0  0  0  0
   -8.2378    5.0407   72.7614 C   0  0  0  0  0  0
   -8.1665    6.1773   72.3097 O   0  0  0  0  0  0
   -7.8604    3.7921   71.9639 C   0  0  0  0  0  0
   -9.0795    2.8972   71.7211 C   0  0  0  0  0  0
   -9.9623    3.3746   70.5653 C   0  0  0  0  0  0
   -9.1691    3.6011   69.2814 C   0  0  0  0  0  0
   -8.6700    2.3528   68.8054 O   0  0  0  0  0  0
   -7.9944    4.5468   69.5005 C   0  0  0  0  0  0
   -7.1051    4.1359   70.6742 C   0  0  0  0  0  0
  -10.4034    7.8556   72.8475 N   0  0  0  0  0  0
  -10.6269    8.1786   71.5558 C   0  0  0  0  0  0
  -10.8027   11.5035   67.5024 C   0  0  0  0  0  0
   -8.9043   10.7762   65.0131 C   0  0  0  0  0  0
   -8.7565    9.8176   64.0014 C   0  0  0  0  0  0
  -10.5892    8.1840   59.9267 H   0  0  0  0  0  0
  -10.7681    9.8186   60.3711 H   0  0  0  0  0  0
  -12.8345    9.6837   69.2796 H   0  0  0  0  0  0
  -12.5559    7.6841   69.1209 H   0  0  0  0  0  0
   -8.9435    3.8058   74.2632 H   0  0  0  0  0  0
   -8.1713    2.5348   67.9901 H   0  0  0  0  0  0
  1  2  1  0  0  0
  1 40  1  0  0  0
  1 41  1  0  0  0
  2  3  2  0  0  0
  2  4  2  0  0  0
  2  5  1  0  0  0
  5  6  2  0  0  0
  5 39  1  0  0  0
  6  7  1  0  0  0
  7  8  2  0  0  0
  8  9  1  0  0  0
  8 38  1  0  0  0
  9 10  1  0  0  0
 10 11  2  0  0  0
 10 37  1  0  0  0
 11 12  1  0  0  0
 12 13  2  0  0  0
 13 14  1  0  0  0
 14 15  1  0  0  0
 14 37  2  0  0  0
 15 16  1  0  0  0
 15 42  1  0  0  0
 16 17  2  0  0  0
 16 18  1  0  0  0
 18 19  1  0  0  0
 18 43  1  0  0  0
 19 20  2  0  0  0
 19 36  1  0  0  0
 20 21  1  0  0  0
 21 22  2  0  0  0
 22 23  1  0  0  0
 22 35  1  0  0  0
 23 24  1  0  0  0
 24 25  1  0  0  0
 25 26  1  0  0  0
 25 44  1  0  0  0
 26 27  2  0  0  0
 26 28  1  0  0  0
 28 29  1  0  0  0
 28 34  1  0  0  0
 29 30  1  0  0  0
 30 31  1  0  0  0
 31 32  1  0  0  0
 31 33  1  0  0  0
 32 45  1  0  0  0
 33 34  1  0  0  0
 35 36  2  0  0  0
 38 39  2  0  0  0
M  END
>  <AUTHOR>
    GENERATED BY OPEN BABEL 2.3.2

>  <CHROM.1>
-61.61634443,-44.39143906,108.35736749,-151.89463692,-160.22419900,-91.72858519
-174.60820205,102.20725477,-54.29304996,84.52624680,63.82015075,-179.95404011
-9.83872465,8.12204604,68.18990799,-1.61568565,-1.18218451,2.06777045

>  <COMPND>
    UNNAMED

>  <MASTER>
        0    0    0    0    0    0    0    0   72    0   72    0

>  <Name>
ligands/mol3.pdb

>  <RI>
3.37503e+07

>  <Rbt.Current_Directory>
/home/rodrigo/Desktop/Rodrigo/Proyectos/test_OCONDOR/OCONDOR

>  <Rbt.Executable>
rbdock ($Id: //depot/dev/client3/rdock/2013.1/src/exe/rbdock.cxx#4 $)

>  <Rbt.Library>
libRbt.so (2013.1, Build901 2013/11/27)

>  <Rbt.Parameter_File>
dock.prm

>  <Rbt.Receptor>
rdock.prm

>  <SCORE>
-13.2726

>  <SCORE.INTER>
-9.27394

>  <SCORE.INTER.CONST>
1

>  <SCORE.INTER.POLAR>
-2.05517

>  <SCORE.INTER.REPUL>
0.00107322

>  <SCORE.INTER.ROT>
11

>  <SCORE.INTER.VDW>
-18.6917

>  <SCORE.INTER.norm>
-0.237793

>  <SCORE.INTRA>
-3.99867

>  <SCORE.INTRA.DIHEDRAL>
-1.54306

>  <SCORE.INTRA.DIHEDRAL.0>
10.441

>  <SCORE.INTRA.POLAR>
0

>  <SCORE.INTRA.POLAR.0>
0

>  <SCORE.INTRA.REPUL>
0

>  <SCORE.INTRA.REPUL.0>
0

>  <SCORE.INTRA.VDW>
-3.22714

>  <SCORE.INTRA.VDW.0>
-1.98888

>  <SCORE.INTRA.norm>
-0.10253

>  <SCORE.RESTR>
0

>  <SCORE.RESTR.CAVITY>
0

>  <SCORE.RESTR.norm>
0

>  <SCORE.SYSTEM>
0

>  <SCORE.SYSTEM.CONST>
0

>  <SCORE.SYSTEM.DIHEDRAL>
0

>  <SCORE.SYSTEM.norm>
0

>  <SCORE.heavy>
39

>  <SCORE.norm>
-0.340323

$$$$
ligands/mol3.pdb
  rDOCK(R)          3D
libRbt.so/2013.1/901 2013/11/27
 45 48  0  0  0  0  0  0  0  0999 V2000
  -10.3672    2.0443   74.6004 N   0  0  0  0  0  0
   -9.8614    3.6391   74.8504 S   0  0  0  0  0  0
  -10.4957    4.1448   76.0479 O   0  0  0  0  0  0
   -8.4218    3.6345   74.7029 O   0  0  0  0  0  0
  -10.5784    4.4833   73.4697 C   0  0  0  0  0  0
   -9.8971    4.5512   72.2573 C   0  0  0  0  0  0
  -10.4868    5.2027   71.1720 C   0  0  0  0  0  0
  -11.6981    5.8993   71.2961 C   0  0  0  0  0  0
  -12.2971    6.7651   70.1765 C   0  0  0  0  0  0
  -11.4632    7.0023   68.9206 C   0  0  0  0  0  0
  -11.5640    6.1675   67.7983 C   0  0  0  0  0  0
  -10.9761    6.5150   66.5867 C   0  0  0  0  0  0
  -10.1287    7.6123   66.5192 C   0  0  0  0  0  0
   -9.8249    8.3339   67.6727 C   0  0  0  0  0  0
   -8.8175    9.3253   67.7025 N   0  0  0  0  0  0
   -8.4914   10.1392   68.7693 C   0  0  0  0  0  0
   -8.9916   10.1193   69.8953 O   0  0  0  0  0  0
   -7.5157   11.0573   68.3959 N   0  0  0  0  0  0
   -7.0291   11.9746   69.3494 C   0  0  0  0  0  0
   -7.4796   13.2875   69.3000 C   0  0  0  0  0  0
   -6.9928   14.2114   70.2226 C   0  0  0  0  0  0
   -6.0517   13.7941   71.1629 C   0  0  0  0  0  0
   -5.5268   14.7706   72.1874 C   0  0  0  0  0  0
   -4.7201   15.9135   71.5651 C   0  0  0  0  0  0
   -5.5356   16.7922   70.7449 N   0  0  0  0  0  0
   -5.5651   16.6464   69.3695 C   0  0  0  0  0  0
   -4.9093   15.8035   68.7690 O   0  0  0  0  0  0
   -6.4761   17.6578   68.6734 C   0  0  0  0  0  0
   -5.6619   18.7361   67.9522 C   0  0  0  0  0  0
   -5.1209   18.2815   66.5943 C   0  0  0  0  0  0
   -6.2122   17.7081   65.6947 C   0  0  0  0  0  0
   -7.1283   18.7426   65.3416 O   0  0  0  0  0  0
   -6.9814   16.5862   66.3816 C   0  0  0  0  0  0
   -7.5063   16.9778   67.7631 C   0  0  0  0  0  0
   -5.5933   12.5198   71.2073 N   0  0  0  0  0  0
   -6.0941   11.6363   70.3177 C   0  0  0  0  0  0
  -10.5244    8.0495   68.8617 C   0  0  0  0  0  0
  -12.3805    5.7815   72.5210 C   0  0  0  0  0  0
  -11.8330    5.0701   73.5972 C   0  0  0  0  0  0
  -11.3799    1.9167   74.5268 H   0  0  0  0  0  0
   -9.9418    1.4101   75.2860 H   0  0  0  0  0  0
   -8.4634    9.6197   66.8028 H   0  0  0  0  0  0
   -6.7656   10.5717   67.9184 H   0  0  0  0  0  0
   -5.9090   17.6398   71.1509 H   0  0  0  0  0  0
   -7.7957   18.3472   64.7544 H   0  0  0  0  0  0
  1  2  1  0  0  0
  1 40  1  0  0  0
  1 41  1  0  0  0
  2  3  2  0  0  0
  2  4  2  0  0  0
  2  5  1  0  0  0
  5  6  2  0  0  0
  5 39  1  0  0  0
  6  7  1  0  0  0
  7  8  2  0  0  0
  8  9  1  0  0  0
  8 38  1  0  0  0
  9 10  1  0  0  0
 10 11  2  0  0  0
 10 37  1  0  0  0
 11 12  1  0  0  0
 12 13  2  0  0  0
 13 14  1  0  0  0
 14 15  1  0  0  0
 14 37  2  0  0  0
 15 16  1  0  0  0
 15 42  1  0  0  0
 16 17  2  0  0  0
 16 18  1  0  0  0
 18 19  1  0  0  0
 18 43  1  0  0  0
 19 20  2  0  0  0
 19 36  1  0  0  0
 20 21  1  0  0  0
 21 22  2  0  0  0
 22 23  1  0  0  0
 22 35  1  0  0  0
 23 24  1  0  0  0
 24 25  1  0  0  0
 25 26  1  0  0  0
 25 44  1  0  0  0
 26 27  2  0  0  0
 26 28  1  0  0  0
 28 29  1  0  0  0
 28 34  1  0  0  0
 29 30  1  0  0  0
 30 31  1  0  0  0
 31 32  1  0  0  0
 31 33  1  0  0  0
 32 45  1  0  0  0
 33 34  1  0  0  0
 35 36  2  0  0  0
 38 39  2  0  0  0
M  END
>  <AUTHOR>
    GENERATED BY OPEN BABEL 2.3.2

>  <CHROM.1>
57.02934550,-87.01791937,-6.80283751,91.98647782,176.31290520,-179.22906795
-102.93161851,-65.05700456,66.59989036,-98.53991384,106.21357339,178.75383625
-8.39568414,10.51933080,70.14765784,-2.19673890,-0.97674391,-0.90122907

>  <COMPND>
    UNNAMED

>  <MASTER>
        0    0    0    0    0    0    0    0   72    0   72    0

>  <Name>
ligands/mol3.pdb

>  <RI>
3.37503e+07

>  <Rbt.Current_Directory>
/home/rodrigo/Desktop/Rodrigo/Proyectos/test_OCONDOR/OCONDOR

>  <Rbt.Executable>
rbdock ($Id: //depot/dev/client3/rdock/2013.1/src/exe/rbdock.cxx#4 $)

>  <Rbt.Library>
libRbt.so (2013.1, Build901 2013/11/27)

>  <Rbt.Parameter_File>
dock.prm

>  <Rbt.Receptor>
rdock.prm

>  <SCORE>
-8.68332

>  <SCORE.INTER>
-6.39959

>  <SCORE.INTER.CONST>
1

>  <SCORE.INTER.POLAR>
-0.786898

>  <SCORE.INTER.REPUL>
0

>  <SCORE.INTER.ROT>
11

>  <SCORE.INTER.VDW>
-20.1241

>  <SCORE.INTER.norm>
-0.164092

>  <SCORE.INTRA>
-2.286

>  <SCORE.INTRA.DIHEDRAL>
-0.273921

>  <SCORE.INTRA.DIHEDRAL.0>
10.441

>  <SCORE.INTRA.POLAR>
0

>  <SCORE.INTRA.POLAR.0>
0

>  <SCORE.INTRA.REPUL>
0

>  <SCORE.INTRA.REPUL.0>
0

>  <SCORE.INTRA.VDW>
-2.14904

>  <SCORE.INTRA.VDW.0>
-1.98888

>  <SCORE.INTRA.norm>
-0.0586154

>  <SCORE.RESTR>
0.00227871

>  <SCORE.RESTR.CAVITY>
0.00227871

>  <SCORE.RESTR.norm>
5.84284e-05

>  <SCORE.SYSTEM>
0

>  <SCORE.SYSTEM.CONST>
0

>  <SCORE.SYSTEM.DIHEDRAL>
0

>  <SCORE.SYSTEM.norm>
0

>  <SCORE.heavy>
39

>  <SCORE.norm>
-0.222649

$$$$
