ligands/mol10.pdb
  rDOCK(R)          3D
libRbt.so/2013.1/901 2013/11/27
 47 50  0  0  0  0  0  0  0  0999 V2000
  -11.1681    5.7455   78.8359 N   0  0  0  0  0  0
   -9.7710    5.1617   78.1076 S   0  0  0  0  0  0
   -8.7054    6.0514   78.5271 O   0  0  0  0  0  0
   -9.7577    3.7542   78.3876 O   0  0  0  0  0  0
  -10.0704    5.4246   76.3836 C   0  0  0  0  0  0
   -9.7323    6.6603   75.8209 C   0  0  0  0  0  0
   -9.9753    6.8933   74.4656 C   0  0  0  0  0  0
  -10.5571    5.9006   73.6634 C   0  0  0  0  0  0
  -10.8176    6.1644   72.1936 C   0  0  0  0  0  0
  -12.1352    6.8557   71.9133 C   0  0  0  0  0  0
  -13.3530    6.2002   72.1330 C   0  0  0  0  0  0
  -14.5585    6.8722   71.9404 C   0  0  0  0  0  0
  -14.5598    8.2080   71.5306 C   0  0  0  0  0  0
  -13.3616    8.8502   71.2269 C   0  0  0  0  0  0
  -13.4091   10.1770   70.7483 N   0  0  0  0  0  0
  -12.2737   10.8997   70.4006 C   0  0  0  0  0  0
  -11.1365   10.4305   70.4129 O   0  0  0  0  0  0
  -12.5317   12.3676   70.0328 C   0  0  0  0  0  0
  -12.5872   13.2836   71.2794 C   0  0  0  0  0  0
  -13.8580   12.9275   72.5467 S   0  0  0  0  0  0
  -11.6432   12.8972   68.9207 C   0  0  0  0  0  0
  -10.2467   12.8949   69.0068 C   0  0  0  0  0  0
   -9.4718   13.3688   67.9433 C   0  0  0  0  0  0
   -7.9661   13.3794   68.0019 C   0  0  0  0  0  0
   -7.3730   14.7540   68.3364 C   0  0  0  0  0  0
   -7.4781   15.6910   67.2342 N   0  0  0  0  0  0
   -8.1255   16.9013   67.3724 C   0  0  0  0  0  0
   -8.5616   17.3020   68.4460 O   0  0  0  0  0  0
   -8.2744   17.6807   66.0643 C   0  0  0  0  0  0
   -9.0965   18.9670   66.2475 C   0  0  0  0  0  0
   -8.3181   20.0826   66.9486 C   0  0  0  0  0  0
   -6.9745   20.3663   66.2836 C   0  0  0  0  0  0
   -7.1901   21.0067   65.0278 O   0  0  0  0  0  0
   -6.1430   19.0968   66.1106 C   0  0  0  0  0  0
   -6.9136   17.9718   65.4227 C   0  0  0  0  0  0
  -10.1417   13.8429   66.8227 C   0  0  0  0  0  0
  -11.4825   13.8494   66.6940 N   0  0  0  0  0  0
  -12.2002   13.3901   67.7413 C   0  0  0  0  0  0
  -12.1541    8.1728   71.4260 C   0  0  0  0  0  0
  -10.9054    4.6707   74.2491 C   0  0  0  0  0  0
  -10.6623    4.4309   75.6056 C   0  0  0  0  0  0
  -11.1452    5.5316   79.8342 H   0  0  0  0  0  0
  -11.9799    5.3439   78.3608 H   0  0  0  0  0  0
  -14.2965   10.4978   70.3808 H   0  0  0  0  0  0
  -13.3688   11.7224   72.9013 H   0  0  0  0  0  0
   -7.2856   15.3445   66.3030 H   0  0  0  0  0  0
   -7.7965   20.4711   64.4927 H   0  0  0  0  0  0
  1  2  1  0  0  0
  1 42  1  0  0  0
  1 43  1  0  0  0
  2  3  2  0  0  0
  2  4  2  0  0  0
  2  5  1  0  0  0
  5  6  2  0  0  0
  5 41  1  0  0  0
  6  7  1  0  0  0
  7  8  2  0  0  0
  8  9  1  0  0  0
  8 40  1  0  0  0
  9 10  1  0  0  0
 10 11  2  0  0  0
 10 39  1  0  0  0
 11 12  1  0  0  0
 12 13  2  0  0  0
 13 14  1  0  0  0
 14 15  1  0  0  0
 14 39  2  0  0  0
 15 16  1  0  0  0
 15 44  1  0  0  0
 16 17  2  0  0  0
 16 18  1  0  0  0
 18 19  1  0  0  0
 18 21  1  0  0  0
 19 20  1  0  0  0
 20 45  1  0  0  0
 21 22  2  0  0  0
 21 38  1  0  0  0
 22 23  1  0  0  0
 23 24  1  0  0  0
 23 36  2  0  0  0
 24 25  1  0  0  0
 25 26  1  0  0  0
 26 27  1  0  0  0
 26 46  1  0  0  0
 27 28  2  0  0  0
 27 29  1  0  0  0
 29 30  1  0  0  0
 29 35  1  0  0  0
 30 31  1  0  0  0
 31 32  1  0  0  0
 32 33  1  0  0  0
 32 34  1  0  0  0
 33 47  1  0  0  0
 34 35  1  0  0  0
 36 37  1  0  0  0
 37 38  2  0  0  0
 40 41  2  0  0  0
M  END
>  <AUTHOR>
    GENERATED BY OPEN BABEL 2.3.2

>  <CHROM.1>
-73.26774907,87.13899936,-85.51562572,-67.93809684,-179.14969901,84.39299548
-59.72592641,-58.19022793,64.48067432,-100.41915198,-72.66290993,122.70656058
175.50993102,-53.89413662,-10.41846801,11.37680197,71.04554073,-1.75897810
-0.43960345,-0.73622532

>  <COMPND>
    UNNAMED

>  <MASTER>
        0    0    0    0    0    0    0    0   77    0   77    0

>  <Name>
ligands/mol10.pdb

>  <RI>
2.69082e+07

>  <Rbt.Current_Directory>
/home/rochoa/Projects/OCONDOR

>  <Rbt.Executable>
rbdock ($Id: //depot/dev/client3/rdock/2013.1/src/exe/rbdock.cxx#4 $)

>  <Rbt.Library>
libRbt.so (2013.1, Build901 2013/11/27)

>  <Rbt.Parameter_File>
dock.prm

>  <Rbt.Receptor>
rdock.prm

>  <SCORE>
-18.0073

>  <SCORE.INTER>
-15.7425

>  <SCORE.INTER.CONST>
1

>  <SCORE.INTER.POLAR>
-0.79956

>  <SCORE.INTER.REPUL>
0

>  <SCORE.INTER.ROT>
13

>  <SCORE.INTER.VDW>
-31.424

>  <SCORE.INTER.norm>
-0.383964

>  <SCORE.INTRA>
-2.26475

>  <SCORE.INTRA.DIHEDRAL>
-5.75879

>  <SCORE.INTRA.DIHEDRAL.0>
15.2397

>  <SCORE.INTRA.POLAR>
0.13644

>  <SCORE.INTRA.POLAR.0>
-0.13644

>  <SCORE.INTRA.REPUL>
0

>  <SCORE.INTRA.REPUL.0>
0

>  <SCORE.INTRA.VDW>
0.150746

>  <SCORE.INTRA.VDW.0>
-4.66274

>  <SCORE.INTRA.norm>
-0.0552379

>  <SCORE.RESTR>
0

>  <SCORE.RESTR.CAVITY>
0

>  <SCORE.RESTR.norm>
0

>  <SCORE.SYSTEM>
0

>  <SCORE.SYSTEM.CONST>
0

>  <SCORE.SYSTEM.DIHEDRAL>
0

>  <SCORE.SYSTEM.norm>
0

>  <SCORE.heavy>
41

>  <SCORE.norm>
-0.439202

$$$$
ligands/mol10.pdb
  rDOCK(R)          3D
libRbt.so/2013.1/901 2013/11/27
 47 50  0  0  0  0  0  0  0  0999 V2000
   -5.0406   11.3593   63.5607 N   0  0  0  0  0  0
   -5.7886    9.9698   62.9839 S   0  0  0  0  0  0
   -5.3901    9.8543   61.5943 O   0  0  0  0  0  0
   -5.5028    8.9541   63.9567 O   0  0  0  0  0  0
   -7.5088   10.3810   63.0380 C   0  0  0  0  0  0
   -8.1808   10.3118   64.2634 C   0  0  0  0  0  0
   -9.5421   10.6169   64.3244 C   0  0  0  0  0  0
  -10.2428   10.9903   63.1681 C   0  0  0  0  0  0
  -11.7208   11.3182   63.2453 C   0  0  0  0  0  0
  -12.0530   12.4595   64.1831 C   0  0  0  0  0  0
  -12.3496   13.7352   63.6877 C   0  0  0  0  0  0
  -12.7247   14.7579   64.5568 C   0  0  0  0  0  0
  -12.8118   14.5152   65.9301 C   0  0  0  0  0  0
  -12.4400   13.2772   66.4491 C   0  0  0  0  0  0
  -12.4742   13.0937   67.8480 N   0  0  0  0  0  0
  -12.4978   14.1496   68.7517 C   0  0  0  0  0  0
  -12.5596   15.3320   68.4175 O   0  0  0  0  0  0
  -12.3965   13.7374   70.2271 C   0  0  0  0  0  0
  -13.5449   14.3274   71.0811 C   0  0  0  0  0  0
  -13.3319   14.3560   72.8981 S   0  0  0  0  0  0
  -12.1699   12.2516   70.4452 C   0  0  0  0  0  0
  -11.0388   11.5835   69.9636 C   0  0  0  0  0  0
  -10.8630   10.2189   70.2146 C   0  0  0  0  0  0
   -9.6565    9.4689   69.7123 C   0  0  0  0  0  0
   -8.6818    9.0569   70.8229 C   0  0  0  0  0  0
   -9.2908    8.1780   71.8030 N   0  0  0  0  0  0
   -8.8662    8.1527   73.1153 C   0  0  0  0  0  0
   -8.0266    8.9298   73.5564 O   0  0  0  0  0  0
   -9.5146    7.0528   73.9584 C   0  0  0  0  0  0
  -11.0459    7.1838   74.0015 C   0  0  0  0  0  0
  -11.7237    6.7374   72.7040 C   0  0  0  0  0  0
  -11.2928    5.3398   72.2690 C   0  0  0  0  0  0
  -11.8542    4.3715   73.1526 O   0  0  0  0  0  0
   -9.7728    5.2035   72.2081 C   0  0  0  0  0  0
   -9.0842    5.6576   73.4935 C   0  0  0  0  0  0
  -11.8512    9.5679   70.9419 C   0  0  0  0  0  0
  -12.9470   10.1763   71.4352 N   0  0  0  0  0  0
  -13.0881   11.4926   71.1698 C   0  0  0  0  0  0
  -12.0685   12.2527   65.5722 C   0  0  0  0  0  0
   -9.5555   11.0387   61.9425 C   0  0  0  0  0  0
   -8.1913   10.7363   61.8757 C   0  0  0  0  0  0
   -5.2661   11.4806   64.5492 H   0  0  0  0  0  0
   -5.3316   12.1532   62.9852 H   0  0  0  0  0  0
  -12.7790   12.1875   68.1818 H   0  0  0  0  0  0
  -13.2906   13.0178   73.0557 H   0  0  0  0  0  0
   -9.8608    7.4153   71.4601 H   0  0  0  0  0  0
  -12.8217    4.4006   73.0901 H   0  0  0  0  0  0
  1  2  1  0  0  0
  1 42  1  0  0  0
  1 43  1  0  0  0
  2  3  2  0  0  0
  2  4  2  0  0  0
  2  5  1  0  0  0
  5  6  2  0  0  0
  5 41  1  0  0  0
  6  7  1  0  0  0
  7  8  2  0  0  0
  8  9  1  0  0  0
  8 40  1  0  0  0
  9 10  1  0  0  0
 10 11  2  0  0  0
 10 39  1  0  0  0
 11 12  1  0  0  0
 12 13  2  0  0  0
 13 14  1  0  0  0
 14 15  1  0  0  0
 14 39  2  0  0  0
 15 16  1  0  0  0
 15 44  1  0  0  0
 16 17  2  0  0  0
 16 18  1  0  0  0
 18 19  1  0  0  0
 18 21  1  0  0  0
 19 20  1  0  0  0
 20 45  1  0  0  0
 21 22  2  0  0  0
 21 38  1  0  0  0
 22 23  1  0  0  0
 23 24  1  0  0  0
 23 36  2  0  0  0
 24 25  1  0  0  0
 25 26  1  0  0  0
 26 27  1  0  0  0
 26 46  1  0  0  0
 27 28  2  0  0  0
 27 29  1  0  0  0
 29 30  1  0  0  0
 29 35  1  0  0  0
 30 31  1  0  0  0
 31 32  1  0  0  0
 32 33  1  0  0  0
 32 34  1  0  0  0
 33 47  1  0  0  0
 34 35  1  0  0  0
 36 37  1  0  0  0
 37 38  2  0  0  0
 40 41  2  0  0  0
M  END
>  <AUTHOR>
    GENERATED BY OPEN BABEL 2.3.2

>  <CHROM.1>
-178.51185238,-79.39816396,59.05583391,102.96151977,-18.24202522,-126.67884428
-162.61722688,61.20065819,-64.01356241,109.55282283,60.65523901,-150.99616765
-59.10595270,63.13092862,-10.34237185,10.57545470,68.28968839,-1.17855919
-0.82597296,2.14070493

>  <COMPND>
    UNNAMED

>  <MASTER>
        0    0    0    0    0    0    0    0   77    0   77    0

>  <Name>
ligands/mol10.pdb

>  <RI>
2.69082e+07

>  <Rbt.Current_Directory>
/home/rochoa/Projects/OCONDOR

>  <Rbt.Executable>
rbdock ($Id: //depot/dev/client3/rdock/2013.1/src/exe/rbdock.cxx#4 $)

>  <Rbt.Library>
libRbt.so (2013.1, Build901 2013/11/27)

>  <Rbt.Parameter_File>
dock.prm

>  <Rbt.Receptor>
rdock.prm

>  <SCORE>
-11.9826

>  <SCORE.INTER>
-15.4909

>  <SCORE.INTER.CONST>
1

>  <SCORE.INTER.POLAR>
0

>  <SCORE.INTER.REPUL>
0

>  <SCORE.INTER.ROT>
13

>  <SCORE.INTER.VDW>
-33.8909

>  <SCORE.INTER.norm>
-0.377827

>  <SCORE.INTRA>
3.50446

>  <SCORE.INTRA.DIHEDRAL>
-2.97851

>  <SCORE.INTRA.DIHEDRAL.0>
15.2397

>  <SCORE.INTRA.POLAR>
0.13644

>  <SCORE.INTRA.POLAR.0>
-0.13644

>  <SCORE.INTRA.REPUL>
0

>  <SCORE.INTRA.REPUL.0>
0

>  <SCORE.INTRA.VDW>
4.52982

>  <SCORE.INTRA.VDW.0>
-4.66274

>  <SCORE.INTRA.norm>
0.0854747

>  <SCORE.RESTR>
0.00382858

>  <SCORE.RESTR.CAVITY>
0.00382858

>  <SCORE.RESTR.norm>
9.338e-05

>  <SCORE.SYSTEM>
0

>  <SCORE.SYSTEM.CONST>
0

>  <SCORE.SYSTEM.DIHEDRAL>
0

>  <SCORE.SYSTEM.norm>
0

>  <SCORE.heavy>
41

>  <SCORE.norm>
-0.292259

$$$$
ligands/mol10.pdb
  rDOCK(R)          3D
libRbt.so/2013.1/901 2013/11/27
 47 50  0  0  0  0  0  0  0  0999 V2000
  -11.9864    3.7063   73.4939 N   0  0  0  0  0  0
  -10.7787    4.8592   73.3054 S   0  0  0  0  0  0
  -11.2016    6.0057   74.0862 O   0  0  0  0  0  0
   -9.5488    4.1639   73.5574 O   0  0  0  0  0  0
  -10.8845    5.2829   71.5907 C   0  0  0  0  0  0
  -11.8490    6.2111   71.1833 C   0  0  0  0  0  0
  -11.9592    6.5469   69.8323 C   0  0  0  0  0  0
  -11.1132    5.9609   68.8794 C   0  0  0  0  0  0
  -11.2421    6.3316   67.4152 C   0  0  0  0  0  0
  -10.2671    7.3961   66.9585 C   0  0  0  0  0  0
   -8.8848    7.1815   67.0231 C   0  0  0  0  0  0
   -8.0003    8.1398   66.5321 C   0  0  0  0  0  0
   -8.4879    9.3210   65.9671 C   0  0  0  0  0  0
   -9.8550    9.5885   65.9703 C   0  0  0  0  0  0
  -10.3025   10.8236   65.4546 N   0  0  0  0  0  0
   -9.5752   11.5707   64.5353 C   0  0  0  0  0  0
   -8.5144   11.1950   64.0382 O   0  0  0  0  0  0
  -10.1733   12.9455   64.2050 C   0  0  0  0  0  0
  -11.6328   12.8440   63.6995 C   0  0  0  0  0  0
  -12.5570   14.4010   63.4361 S   0  0  0  0  0  0
   -9.9698   13.9905   65.2881 C   0  0  0  0  0  0
   -9.4401   13.6791   66.5451 C   0  0  0  0  0  0
   -9.2467   14.6830   67.4995 C   0  0  0  0  0  0
   -8.6773   14.3831   68.8620 C   0  0  0  0  0  0
   -7.1859   14.7173   68.9929 C   0  0  0  0  0  0
   -6.9000   16.1127   68.7190 N   0  0  0  0  0  0
   -6.4115   16.5249   67.4965 C   0  0  0  0  0  0
   -6.2824   15.7652   66.5428 O   0  0  0  0  0  0
   -6.0204   18.0033   67.4487 C   0  0  0  0  0  0
   -5.2689   18.3615   66.1560 C   0  0  0  0  0  0
   -6.1858   18.4541   64.9343 C   0  0  0  0  0  0
   -7.3770   19.3794   65.1648 C   0  0  0  0  0  0
   -6.9285   20.7326   65.2040 O   0  0  0  0  0  0
   -8.1397   19.0225   66.4390 C   0  0  0  0  0  0
   -7.2329   18.9153   67.6633 C   0  0  0  0  0  0
   -9.6083   15.9779   67.1509 C   0  0  0  0  0  0
  -10.1076   16.3220   65.9481 N   0  0  0  0  0  0
  -10.2866   15.3277   65.0524 C   0  0  0  0  0  0
  -10.7389    8.6215   66.4603 C   0  0  0  0  0  0
  -10.1606    5.0179   69.3043 C   0  0  0  0  0  0
  -10.0441    4.6793   70.6566 C   0  0  0  0  0  0
  -11.8218    2.9336   72.8470 H   0  0  0  0  0  0
  -12.8950    4.1553   73.3556 H   0  0  0  0  0  0
  -11.2928   11.0197   65.5354 H   0  0  0  0  0  0
  -13.7476   13.8180   63.1920 H   0  0  0  0  0  0
   -6.8326   16.7423   69.5085 H   0  0  0  0  0  0
   -7.6924   21.3227   65.3001 H   0  0  0  0  0  0
  1  2  1  0  0  0
  1 42  1  0  0  0
  1 43  1  0  0  0
  2  3  2  0  0  0
  2  4  2  0  0  0
  2  5  1  0  0  0
  5  6  2  0  0  0
  5 41  1  0  0  0
  6  7  1  0  0  0
  7  8  2  0  0  0
  8  9  1  0  0  0
  8 40  1  0  0  0
  9 10  1  0  0  0
 10 11  2  0  0  0
 10 39  1  0  0  0
 11 12  1  0  0  0
 12 13  2  0  0  0
 13 14  1  0  0  0
 14 15  1  0  0  0
 14 39  2  0  0  0
 15 16  1  0  0  0
 15 44  1  0  0  0
 16 17  2  0  0  0
 16 18  1  0  0  0
 18 19  1  0  0  0
 18 21  1  0  0  0
 19 20  1  0  0  0
 20 45  1  0  0  0
 21 22  2  0  0  0
 21 38  1  0  0  0
 22 23  1  0  0  0
 23 24  1  0  0  0
 23 36  2  0  0  0
 24 25  1  0  0  0
 25 26  1  0  0  0
 26 27  1  0  0  0
 26 46  1  0  0  0
 27 28  2  0  0  0
 27 29  1  0  0  0
 29 30  1  0  0  0
 29 35  1  0  0  0
 30 31  1  0  0  0
 31 32  1  0  0  0
 32 33  1  0  0  0
 32 34  1  0  0  0
 33 47  1  0  0  0
 34 35  1  0  0  0
 36 37  1  0  0  0
 37 38  2  0  0  0
 40 41  2  0  0  0
M  END
>  <AUTHOR>
    GENERATED BY OPEN BABEL 2.3.2

>  <CHROM.1>
170.81740862,82.00299159,96.86308207,61.29705601,23.79821554,-55.83563695
173.40235633,-7.94780795,-172.48108833,100.20006986,58.45665702,-99.65223403
170.45947006,176.81037304,-9.42297878,11.70406248,67.61832740,-2.01173534
-1.04869842,-0.80819420

>  <COMPND>
    UNNAMED

>  <MASTER>
        0    0    0    0    0    0    0    0   77    0   77    0

>  <Name>
ligands/mol10.pdb

>  <RI>
2.69082e+07

>  <Rbt.Current_Directory>
/home/rochoa/Projects/OCONDOR

>  <Rbt.Executable>
rbdock ($Id: //depot/dev/client3/rdock/2013.1/src/exe/rbdock.cxx#4 $)

>  <Rbt.Library>
libRbt.so (2013.1, Build901 2013/11/27)

>  <Rbt.Parameter_File>
dock.prm

>  <Rbt.Receptor>
rdock.prm

>  <SCORE>
-17.4696

>  <SCORE.INTER>
-15.2379

>  <SCORE.INTER.CONST>
1

>  <SCORE.INTER.POLAR>
-1.94397

>  <SCORE.INTER.REPUL>
0.0471627

>  <SCORE.INTER.ROT>
13

>  <SCORE.INTER.VDW>
-27.2642

>  <SCORE.INTER.norm>
-0.371656

>  <SCORE.INTRA>
-2.23171

>  <SCORE.INTRA.DIHEDRAL>
-6.18719

>  <SCORE.INTRA.DIHEDRAL.0>
15.2397

>  <SCORE.INTRA.POLAR>
0.13644

>  <SCORE.INTRA.POLAR.0>
-0.13644

>  <SCORE.INTRA.REPUL>
0

>  <SCORE.INTRA.REPUL.0>
0

>  <SCORE.INTRA.VDW>
0.397989

>  <SCORE.INTRA.VDW.0>
-4.66274

>  <SCORE.INTRA.norm>
-0.054432

>  <SCORE.RESTR>
0

>  <SCORE.RESTR.CAVITY>
0

>  <SCORE.RESTR.norm>
0

>  <SCORE.SYSTEM>
0

>  <SCORE.SYSTEM.CONST>
0

>  <SCORE.SYSTEM.DIHEDRAL>
0

>  <SCORE.SYSTEM.norm>
0

>  <SCORE.heavy>
41

>  <SCORE.norm>
-0.426088

$$$$
ligands/mol10.pdb
  rDOCK(R)          3D
libRbt.so/2013.1/901 2013/11/27
 47 50  0  0  0  0  0  0  0  0999 V2000
   -8.7225   11.2327   65.2543 N   0  0  0  0  0  0
  -10.3835   10.9795   65.2632 S   0  0  0  0  0  0
  -10.8560   11.4116   63.9620 O   0  0  0  0  0  0
  -10.5596    9.6384   65.7430 O   0  0  0  0  0  0
  -10.9640   12.1287   66.4769 C   0  0  0  0  0  0
  -10.2649   12.2467   67.6833 C   0  0  0  0  0  0
  -10.7160   13.1363   68.6605 C   0  0  0  0  0  0
  -11.8648   13.9117   68.4449 C   0  0  0  0  0  0
  -12.3466   14.8735   69.5129 C   0  0  0  0  0  0
  -13.0802   14.2088   70.6584 C   0  0  0  0  0  0
  -14.0314   14.9115   71.4084 C   0  0  0  0  0  0
  -14.7515   14.2672   72.4124 C   0  0  0  0  0  0
  -14.5321   12.9124   72.6747 C   0  0  0  0  0  0
  -13.5321   12.2192   71.9966 C   0  0  0  0  0  0
  -13.2935   10.8713   72.3396 N   0  0  0  0  0  0
  -12.2326   10.1338   71.8268 C   0  0  0  0  0  0
  -11.3708   10.6039   71.0853 O   0  0  0  0  0  0
  -12.2295    8.6499   72.2203 C   0  0  0  0  0  0
  -12.6708    7.7329   71.0540 C   0  0  0  0  0  0
  -11.4627    7.4052   69.7194 S   0  0  0  0  0  0
  -10.9589    8.1917   72.9147 C   0  0  0  0  0  0
  -10.9658    7.2667   73.9645 C   0  0  0  0  0  0
   -9.7655    6.8559   74.5532 C   0  0  0  0  0  0
   -9.7365    5.8607   75.6842 C   0  0  0  0  0  0
   -8.3901    5.1415   75.8366 C   0  0  0  0  0  0
   -7.9771    4.4657   74.6214 N   0  0  0  0  0  0
   -6.8364    4.8356   73.9395 C   0  0  0  0  0  0
   -6.0551    5.6808   74.3621 O   0  0  0  0  0  0
   -6.6517    4.1191   72.6003 C   0  0  0  0  0  0
   -7.7835    4.4413   71.6108 C   0  0  0  0  0  0
   -7.6677    5.8399   71.0005 C   0  0  0  0  0  0
   -6.2954    6.0989   70.3858 C   0  0  0  0  0  0
   -6.1540    5.3285   69.1941 O   0  0  0  0  0  0
   -5.1638    5.7964   71.3661 C   0  0  0  0  0  0
   -5.2755    4.4072   71.9910 C   0  0  0  0  0  0
   -8.5888    7.4074   74.0629 C   0  0  0  0  0  0
   -8.5373    8.2889   73.0457 N   0  0  0  0  0  0
   -9.7144    8.6680   72.5039 C   0  0  0  0  0  0
  -12.8151   12.8692   70.9867 C   0  0  0  0  0  0
  -12.5642   13.7684   67.2335 C   0  0  0  0  0  0
  -12.1158   12.8804   66.2500 C   0  0  0  0  0  0
   -8.5257   12.1817   64.9328 H   0  0  0  0  0  0
   -8.2830   10.5155   64.6724 H   0  0  0  0  0  0
  -13.7290   10.5328   73.1890 H   0  0  0  0  0  0
  -12.3676    7.3486   68.7218 H   0  0  0  0  0  0
   -8.6603    3.8863   74.1506 H   0  0  0  0  0  0
   -6.2683    4.3881   69.4027 H   0  0  0  0  0  0
  1  2  1  0  0  0
  1 42  1  0  0  0
  1 43  1  0  0  0
  2  3  2  0  0  0
  2  4  2  0  0  0
  2  5  1  0  0  0
  5  6  2  0  0  0
  5 41  1  0  0  0
  6  7  1  0  0  0
  7  8  2  0  0  0
  8  9  1  0  0  0
  8 40  1  0  0  0
  9 10  1  0  0  0
 10 11  2  0  0  0
 10 39  1  0  0  0
 11 12  1  0  0  0
 12 13  2  0  0  0
 13 14  1  0  0  0
 14 15  1  0  0  0
 14 39  2  0  0  0
 15 16  1  0  0  0
 15 44  1  0  0  0
 16 17  2  0  0  0
 16 18  1  0  0  0
 18 19  1  0  0  0
 18 21  1  0  0  0
 19 20  1  0  0  0
 20 45  1  0  0  0
 21 22  2  0  0  0
 21 38  1  0  0  0
 22 23  1  0  0  0
 23 24  1  0  0  0
 23 36  2  0  0  0
 24 25  1  0  0  0
 25 26  1  0  0  0
 26 27  1  0  0  0
 26 46  1  0  0  0
 27 28  2  0  0  0
 27 29  1  0  0  0
 29 30  1  0  0  0
 29 35  1  0  0  0
 30 31  1  0  0  0
 31 32  1  0  0  0
 32 33  1  0  0  0
 32 34  1  0  0  0
 33 47  1  0  0  0
 34 35  1  0  0  0
 36 37  1  0  0  0
 37 38  2  0  0  0
 40 41  2  0  0  0
M  END
>  <AUTHOR>
    GENERATED BY OPEN BABEL 2.3.2

>  <CHROM.1>
49.68377646,-44.03055414,-77.74397201,-153.65387733,-173.04924933,104.87593519
76.59787889,142.58541252,-145.57380866,157.90238758,-56.21725496,116.36398816
62.75168121,-58.21460133,-10.20919042,9.21884837,70.62065977,-2.30910901
-0.81793906,1.96872770

>  <COMPND>
    UNNAMED

>  <MASTER>
        0    0    0    0    0    0    0    0   77    0   77    0

>  <Name>
ligands/mol10.pdb

>  <RI>
2.69082e+07

>  <Rbt.Current_Directory>
/home/rochoa/Projects/OCONDOR

>  <Rbt.Executable>
rbdock ($Id: //depot/dev/client3/rdock/2013.1/src/exe/rbdock.cxx#4 $)

>  <Rbt.Library>
libRbt.so (2013.1, Build901 2013/11/27)

>  <Rbt.Parameter_File>
dock.prm

>  <Rbt.Receptor>
rdock.prm

>  <SCORE>
-14.9404

>  <SCORE.INTER>
-13.9024

>  <SCORE.INTER.CONST>
1

>  <SCORE.INTER.POLAR>
-1.14894

>  <SCORE.INTER.REPUL>
0.007432

>  <SCORE.INTER.ROT>
13

>  <SCORE.INTER.VDW>
-28.4332

>  <SCORE.INTER.norm>
-0.339084

>  <SCORE.INTRA>
-1.03794

>  <SCORE.INTRA.DIHEDRAL>
-3.68516

>  <SCORE.INTRA.DIHEDRAL.0>
15.2397

>  <SCORE.INTRA.POLAR>
0.13644

>  <SCORE.INTRA.POLAR.0>
-0.13644

>  <SCORE.INTRA.REPUL>
0

>  <SCORE.INTRA.REPUL.0>
0

>  <SCORE.INTRA.VDW>
0.340744

>  <SCORE.INTRA.VDW.0>
-4.66274

>  <SCORE.INTRA.norm>
-0.0253157

>  <SCORE.RESTR>
0

>  <SCORE.RESTR.CAVITY>
0

>  <SCORE.RESTR.norm>
0

>  <SCORE.SYSTEM>
0

>  <SCORE.SYSTEM.CONST>
0

>  <SCORE.SYSTEM.DIHEDRAL>
0

>  <SCORE.SYSTEM.norm>
0

>  <SCORE.heavy>
41

>  <SCORE.norm>
-0.3644

$$$$
ligands/mol10.pdb
  rDOCK(R)          3D
libRbt.so/2013.1/901 2013/11/27
 47 50  0  0  0  0  0  0  0  0999 V2000
  -12.6210   17.0447   73.9342 N   0  0  0  0  0  0
  -12.6830   15.4264   73.4864 S   0  0  0  0  0  0
  -11.6115   14.7738   74.2138 O   0  0  0  0  0  0
  -14.0592   15.0458   73.6314 O   0  0  0  0  0  0
  -12.2511   15.4619   71.7708 C   0  0  0  0  0  0
  -10.9189   15.2387   71.4057 C   0  0  0  0  0  0
  -10.5547   15.2784   70.0582 C   0  0  0  0  0  0
  -11.5116   15.5419   69.0671 C   0  0  0  0  0  0
  -11.1053   15.5839   67.6074 C   0  0  0  0  0  0
  -11.6179   14.4179   66.7888 C   0  0  0  0  0  0
  -12.7443   14.5545   65.9682 C   0  0  0  0  0  0
  -13.1621   13.4954   65.1648 C   0  0  0  0  0  0
  -12.4559   12.2897   65.1695 C   0  0  0  0  0  0
  -11.3842   12.1074   66.0405 C   0  0  0  0  0  0
  -10.7411   10.8514   66.0661 N   0  0  0  0  0  0
   -9.8876   10.4563   67.0896 C   0  0  0  0  0  0
   -9.6689   11.1321   68.0941 O   0  0  0  0  0  0
   -9.1862    9.1101   66.8603 C   0  0  0  0  0  0
   -7.7294    9.1111   67.3834 C   0  0  0  0  0  0
   -7.4470    9.5895   69.1268 S   0  0  0  0  0  0
   -9.9957    7.9025   67.2998 C   0  0  0  0  0  0
  -10.1863    7.5731   68.6462 C   0  0  0  0  0  0
  -10.9636    6.4655   69.0001 C   0  0  0  0  0  0
  -11.1906    6.0832   70.4399 C   0  0  0  0  0  0
  -10.1301    5.1247   70.9966 C   0  0  0  0  0  0
  -10.3901    4.7414   72.3712 N   0  0  0  0  0  0
   -9.3645    4.4813   73.2564 C   0  0  0  0  0  0
   -8.1838    4.6504   72.9726 O   0  0  0  0  0  0
   -9.8317    3.9376   74.6081 C   0  0  0  0  0  0
   -8.6683    3.3661   75.4352 C   0  0  0  0  0  0
   -7.7836    4.4496   76.0558 C   0  0  0  0  0  0
   -8.5853    5.4760   76.8509 C   0  0  0  0  0  0
   -9.0700    4.8764   78.0505 O   0  0  0  0  0  0
   -9.7347    6.0613   76.0329 C   0  0  0  0  0  0
  -10.6178    4.9890   75.3983 C   0  0  0  0  0  0
  -11.5182    5.7157   67.9709 C   0  0  0  0  0  0
  -11.3711    6.0065   66.6640 N   0  0  0  0  0  0
  -10.6102    7.0790   66.3573 C   0  0  0  0  0  0
  -10.9660   13.1750   66.8416 C   0  0  0  0  0  0
  -12.8425   15.7801   69.4533 C   0  0  0  0  0  0
  -13.2137   15.7394   70.8014 C   0  0  0  0  0  0
  -11.6460   17.3389   74.0088 H   0  0  0  0  0  0
  -13.1417   17.1654   74.8062 H   0  0  0  0  0  0
  -11.1365   10.1246   65.4821 H   0  0  0  0  0  0
   -8.2684   10.6583   69.1139 H   0  0  0  0  0  0
  -11.3253    4.4323   72.6038 H   0  0  0  0  0  0
   -8.3192    4.5998   78.5989 H   0  0  0  0  0  0
  1  2  1  0  0  0
  1 42  1  0  0  0
  1 43  1  0  0  0
  2  3  2  0  0  0
  2  4  2  0  0  0
  2  5  1  0  0  0
  5  6  2  0  0  0
  5 41  1  0  0  0
  6  7  1  0  0  0
  7  8  2  0  0  0
  8  9  1  0  0  0
  8 40  1  0  0  0
  9 10  1  0  0  0
 10 11  2  0  0  0
 10 39  1  0  0  0
 11 12  1  0  0  0
 12 13  2  0  0  0
 13 14  1  0  0  0
 14 15  1  0  0  0
 14 39  2  0  0  0
 15 16  1  0  0  0
 15 44  1  0  0  0
 16 17  2  0  0  0
 16 18  1  0  0  0
 18 19  1  0  0  0
 18 21  1  0  0  0
 19 20  1  0  0  0
 20 45  1  0  0  0
 21 22  2  0  0  0
 21 38  1  0  0  0
 22 23  1  0  0  0
 23 24  1  0  0  0
 23 36  2  0  0  0
 24 25  1  0  0  0
 25 26  1  0  0  0
 26 27  1  0  0  0
 26 46  1  0  0  0
 27 28  2  0  0  0
 27 29  1  0  0  0
 29 30  1  0  0  0
 29 35  1  0  0  0
 30 31  1  0  0  0
 31 32  1  0  0  0
 32 33  1  0  0  0
 32 34  1  0  0  0
 33 47  1  0  0  0
 34 35  1  0  0  0
 36 37  1  0  0  0
 37 38  2  0  0  0
 40 41  2  0  0  0
M  END
>  <AUTHOR>
    GENERATED BY OPEN BABEL 2.3.2

>  <CHROM.1>
39.22999233,95.18862887,109.46422964,100.40544966,-164.46602742,142.62751139
54.23054979,-73.32302765,-44.70958373,-89.35811903,-178.36661614,-147.49673917
167.00410114,62.17326830,-10.63818795,10.11735250,70.55504581,2.65295510
1.29729320,-1.51359064

>  <COMPND>
    UNNAMED

>  <MASTER>
        0    0    0    0    0    0    0    0   77    0   77    0

>  <Name>
ligands/mol10.pdb

>  <RI>
2.69082e+07

>  <Rbt.Current_Directory>
/home/rochoa/Projects/OCONDOR

>  <Rbt.Executable>
rbdock ($Id: //depot/dev/client3/rdock/2013.1/src/exe/rbdock.cxx#4 $)

>  <Rbt.Library>
libRbt.so (2013.1, Build901 2013/11/27)

>  <Rbt.Parameter_File>
dock.prm

>  <Rbt.Receptor>
rdock.prm

>  <SCORE>
-16.8114

>  <SCORE.INTER>
-13.0648

>  <SCORE.INTER.CONST>
1

>  <SCORE.INTER.POLAR>
-1.0198

>  <SCORE.INTER.REPUL>
0.103544

>  <SCORE.INTER.ROT>
13

>  <SCORE.INTER.VDW>
-28.5152

>  <SCORE.INTER.norm>
-0.318654

>  <SCORE.INTRA>
-3.74662

>  <SCORE.INTRA.DIHEDRAL>
-5.93004

>  <SCORE.INTRA.DIHEDRAL.0>
15.2397

>  <SCORE.INTRA.POLAR>
-0.442448

>  <SCORE.INTRA.POLAR.0>
-0.13644

>  <SCORE.INTRA.REPUL>
0

>  <SCORE.INTRA.REPUL.0>
0

>  <SCORE.INTRA.VDW>
0.722719

>  <SCORE.INTRA.VDW.0>
-4.66274

>  <SCORE.INTRA.norm>
-0.091381

>  <SCORE.RESTR>
0

>  <SCORE.RESTR.CAVITY>
0

>  <SCORE.RESTR.norm>
0

>  <SCORE.SYSTEM>
0

>  <SCORE.SYSTEM.CONST>
0

>  <SCORE.SYSTEM.DIHEDRAL>
0

>  <SCORE.SYSTEM.norm>
0

>  <SCORE.heavy>
41

>  <SCORE.norm>
-0.410035

$$$$
ligands/mol10.pdb
  rDOCK(R)          3D
libRbt.so/2013.1/901 2013/11/27
 47 50  0  0  0  0  0  0  0  0999 V2000
   -6.9776   17.9078   69.1849 N   0  0  0  0  0  0
   -7.8929   19.1276   68.4795 S   0  0  0  0  0  0
   -8.8064   19.5822   69.5100 O   0  0  0  0  0  0
   -6.9419   19.9992   67.8506 O   0  0  0  0  0  0
   -8.8273   18.2727   67.2439 C   0  0  0  0  0  0
  -10.1138   18.7283   66.9353 C   0  0  0  0  0  0
  -10.8737   18.0578   65.9746 C   0  0  0  0  0  0
  -10.3600   16.9303   65.3171 C   0  0  0  0  0  0
  -11.1937   16.2091   64.2767 C   0  0  0  0  0  0
  -11.6599   14.8331   64.7029 C   0  0  0  0  0  0
  -12.6836   14.1737   64.0115 C   0  0  0  0  0  0
  -13.0531   12.8785   64.3687 C   0  0  0  0  0  0
  -12.4001   12.2264   65.4180 C   0  0  0  0  0  0
  -11.4381   12.8964   66.1703 C   0  0  0  0  0  0
  -10.8520   12.2278   67.2663 N   0  0  0  0  0  0
  -10.6588   10.8517   67.3011 C   0  0  0  0  0  0
  -10.9159   10.1031   66.3593 O   0  0  0  0  0  0
  -10.1314   10.3086   68.6366 C   0  0  0  0  0  0
   -8.8765   11.0715   69.1255 C   0  0  0  0  0  0
   -7.4157   11.1097   68.0243 S   0  0  0  0  0  0
  -11.1982   10.1338   69.7034 C   0  0  0  0  0  0
  -11.0351    9.2787   70.7988 C   0  0  0  0  0  0
  -12.0366    9.1735   71.7692 C   0  0  0  0  0  0
  -11.8932    8.2638   72.9619 C   0  0  0  0  0  0
  -11.6859    6.7900   72.5903 C   0  0  0  0  0  0
  -11.3364    5.9693   73.7341 N   0  0  0  0  0  0
  -10.1057    6.0712   74.3489 C   0  0  0  0  0  0
   -9.2757    6.9179   74.0367 O   0  0  0  0  0  0
   -9.8612    5.0174   75.4310 C   0  0  0  0  0  0
   -8.3993    4.5417   75.4554 C   0  0  0  0  0  0
   -7.4462    5.5617   76.0823 C   0  0  0  0  0  0
   -7.9079    6.0246   77.4609 C   0  0  0  0  0  0
   -7.7413    4.9644   78.4001 O   0  0  0  0  0  0
   -9.3547    6.5138   77.4446 C   0  0  0  0  0  0
  -10.3139    5.5088   76.8099 C   0  0  0  0  0  0
  -13.1842    9.9357   71.5921 C   0  0  0  0  0  0
  -13.3747   10.7809   70.5608 N   0  0  0  0  0  0
  -12.3904   10.8540   69.6394 C   0  0  0  0  0  0
  -11.0677   14.1948   65.8049 C   0  0  0  0  0  0
   -9.0718   16.4765   65.6514 C   0  0  0  0  0  0
   -8.3052   17.1455   66.6114 C   0  0  0  0  0  0
   -6.2927   17.5642   68.5100 H   0  0  0  0  0  0
   -7.6077   17.1757   69.5213 H   0  0  0  0  0  0
  -10.3043   12.7918   67.9047 H   0  0  0  0  0  0
   -7.3568    9.7781   67.8230 H   0  0  0  0  0  0
  -11.9096    5.1567   73.9220 H   0  0  0  0  0  0
   -8.0757    5.2455   79.2661 H   0  0  0  0  0  0
  1  2  1  0  0  0
  1 42  1  0  0  0
  1 43  1  0  0  0
  2  3  2  0  0  0
  2  4  2  0  0  0
  2  5  1  0  0  0
  5  6  2  0  0  0
  5 41  1  0  0  0
  6  7  1  0  0  0
  7  8  2  0  0  0
  8  9  1  0  0  0
  8 40  1  0  0  0
  9 10  1  0  0  0
 10 11  2  0  0  0
 10 39  1  0  0  0
 11 12  1  0  0  0
 12 13  2  0  0  0
 13 14  1  0  0  0
 14 15  1  0  0  0
 14 39  2  0  0  0
 15 16  1  0  0  0
 15 44  1  0  0  0
 16 17  2  0  0  0
 16 18  1  0  0  0
 18 19  1  0  0  0
 18 21  1  0  0  0
 19 20  1  0  0  0
 20 45  1  0  0  0
 21 22  2  0  0  0
 21 38  1  0  0  0
 22 23  1  0  0  0
 23 24  1  0  0  0
 23 36  2  0  0  0
 24 25  1  0  0  0
 25 26  1  0  0  0
 26 27  1  0  0  0
 26 46  1  0  0  0
 27 28  2  0  0  0
 27 29  1  0  0  0
 29 30  1  0  0  0
 29 35  1  0  0  0
 30 31  1  0  0  0
 31 32  1  0  0  0
 32 33  1  0  0  0
 32 34  1  0  0  0
 33 47  1  0  0  0
 34 35  1  0  0  0
 36 37  1  0  0  0
 37 38  2  0  0  0
 40 41  2  0  0  0
M  END
>  <AUTHOR>
    GENERATED BY OPEN BABEL 2.3.2

>  <CHROM.1>
-178.37957315,147.48128903,-110.82413294,164.66235630,31.40687124,-51.19777841
-57.97177220,158.78194295,-51.50425137,-58.77008683,170.66666135,-70.64545169
143.39010836,-177.23595791,-9.99424972,11.82527585,69.84494079,-1.57155415
0.90968984,2.46609568

>  <COMPND>
    UNNAMED

>  <MASTER>
        0    0    0    0    0    0    0    0   77    0   77    0

>  <Name>
ligands/mol10.pdb

>  <RI>
2.69082e+07

>  <Rbt.Current_Directory>
/home/rochoa/Projects/OCONDOR

>  <Rbt.Executable>
rbdock ($Id: //depot/dev/client3/rdock/2013.1/src/exe/rbdock.cxx#4 $)

>  <Rbt.Library>
libRbt.so (2013.1, Build901 2013/11/27)

>  <Rbt.Parameter_File>
dock.prm

>  <Rbt.Receptor>
rdock.prm

>  <SCORE>
-10.7069

>  <SCORE.INTER>
-10.8892

>  <SCORE.INTER.CONST>
1

>  <SCORE.INTER.POLAR>
0

>  <SCORE.INTER.REPUL>
0

>  <SCORE.INTER.ROT>
13

>  <SCORE.INTER.VDW>
-29.2892

>  <SCORE.INTER.norm>
-0.26559

>  <SCORE.INTRA>
0.182288

>  <SCORE.INTRA.DIHEDRAL>
-3.38573

>  <SCORE.INTRA.DIHEDRAL.0>
15.2397

>  <SCORE.INTRA.POLAR>
0.13644

>  <SCORE.INTRA.POLAR.0>
-0.13644

>  <SCORE.INTRA.REPUL>
0

>  <SCORE.INTRA.REPUL.0>
0

>  <SCORE.INTRA.VDW>
1.41126

>  <SCORE.INTRA.VDW.0>
-4.66274

>  <SCORE.INTRA.norm>
0.00444605

>  <SCORE.RESTR>
0

>  <SCORE.RESTR.CAVITY>
0

>  <SCORE.RESTR.norm>
0

>  <SCORE.SYSTEM>
0

>  <SCORE.SYSTEM.CONST>
0

>  <SCORE.SYSTEM.DIHEDRAL>
0

>  <SCORE.SYSTEM.norm>
0

>  <SCORE.heavy>
41

>  <SCORE.norm>
-0.261144

$$$$
ligands/mol10.pdb
  rDOCK(R)          3D
libRbt.so/2013.1/901 2013/11/27
 47 50  0  0  0  0  0  0  0  0999 V2000
   -4.4676   20.4797   66.9858 N   0  0  0  0  0  0
   -5.6632   21.5250   66.4373 S   0  0  0  0  0  0
   -5.6729   22.6374   67.3676 O   0  0  0  0  0  0
   -5.4059   21.6924   65.0353 O   0  0  0  0  0  0
   -7.1518   20.5957   66.6641 C   0  0  0  0  0  0
   -7.1900   19.2661   66.2297 C   0  0  0  0  0  0
   -8.3605   18.5206   66.3851 C   0  0  0  0  0  0
   -9.4992   19.0928   66.9710 C   0  0  0  0  0  0
  -10.7651   18.2750   67.1338 C   0  0  0  0  0  0
  -10.8930   17.1308   66.1505 C   0  0  0  0  0  0
  -11.2362   17.3658   64.8134 C   0  0  0  0  0  0
  -11.2793   16.3122   63.9024 C   0  0  0  0  0  0
  -10.9754   15.0129   64.3170 C   0  0  0  0  0  0
  -10.7139   14.7476   65.6593 C   0  0  0  0  0  0
  -10.4812   13.4118   66.0505 N   0  0  0  0  0  0
  -10.1105   13.0524   67.3411 C   0  0  0  0  0  0
  -10.0182   13.8519   68.2716 O   0  0  0  0  0  0
   -9.7746   11.5657   67.5247 C   0  0  0  0  0  0
   -8.2666   11.3329   67.7852 C   0  0  0  0  0  0
   -7.1615   11.1812   66.3347 S   0  0  0  0  0  0
  -10.6854   10.8361   68.4967 C   0  0  0  0  0  0
  -10.2398    9.7789   69.2977 C   0  0  0  0  0  0
  -11.1114    9.1572   70.1975 C   0  0  0  0  0  0
  -10.6645    8.0173   71.0758 C   0  0  0  0  0  0
  -10.2210    8.4572   72.4769 C   0  0  0  0  0  0
   -9.7420    7.3514   73.2841 N   0  0  0  0  0  0
   -8.8806    7.5485   74.3435 C   0  0  0  0  0  0
   -8.5464    8.6635   74.7287 O   0  0  0  0  0  0
   -8.3604    6.2542   74.9720 C   0  0  0  0  0  0
   -7.1593    6.5032   75.8990 C   0  0  0  0  0  0
   -7.5548    7.1224   77.2414 C   0  0  0  0  0  0
   -8.6544    6.3352   77.9482 C   0  0  0  0  0  0
   -8.1246    5.1001   78.4252 O   0  0  0  0  0  0
   -9.8591    6.0955   77.0405 C   0  0  0  0  0  0
   -9.4752    5.4887   75.6925 C   0  0  0  0  0  0
  -12.4189    9.6230   70.2500 C   0  0  0  0  0  0
  -12.8838   10.6462   69.5075 N   0  0  0  0  0  0
  -12.0175   11.2201   68.6454 C   0  0  0  0  0  0
  -10.6675   15.8092   66.5688 C   0  0  0  0  0  0
   -9.4482   20.4350   67.3869 C   0  0  0  0  0  0
   -8.2778   21.1861   67.2358 C   0  0  0  0  0  0
   -3.5799   20.9809   67.0454 H   0  0  0  0  0  0
   -4.4269   19.6696   66.3628 H   0  0  0  0  0  0
  -10.8727   12.6886   65.4595 H   0  0  0  0  0  0
   -7.6120   12.2815   65.6993 H   0  0  0  0  0  0
   -9.8527    6.4164   72.9131 H   0  0  0  0  0  0
   -7.4330    5.2781   79.0817 H   0  0  0  0  0  0
  1  2  1  0  0  0
  1 42  1  0  0  0
  1 43  1  0  0  0
  2  3  2  0  0  0
  2  4  2  0  0  0
  2  5  1  0  0  0
  5  6  2  0  0  0
  5 41  1  0  0  0
  6  7  1  0  0  0
  7  8  2  0  0  0
  8  9  1  0  0  0
  8 40  1  0  0  0
  9 10  1  0  0  0
 10 11  2  0  0  0
 10 39  1  0  0  0
 11 12  1  0  0  0
 12 13  2  0  0  0
 13 14  1  0  0  0
 14 15  1  0  0  0
 14 39  2  0  0  0
 15 16  1  0  0  0
 15 44  1  0  0  0
 16 17  2  0  0  0
 16 18  1  0  0  0
 18 19  1  0  0  0
 18 21  1  0  0  0
 19 20  1  0  0  0
 20 45  1  0  0  0
 21 22  2  0  0  0
 21 38  1  0  0  0
 22 23  1  0  0  0
 23 24  1  0  0  0
 23 36  2  0  0  0
 24 25  1  0  0  0
 25 26  1  0  0  0
 26 27  1  0  0  0
 26 46  1  0  0  0
 27 28  2  0  0  0
 27 29  1  0  0  0
 29 30  1  0  0  0
 29 35  1  0  0  0
 30 31  1  0  0  0
 31 32  1  0  0  0
 32 33  1  0  0  0
 32 34  1  0  0  0
 33 47  1  0  0  0
 34 35  1  0  0  0
 36 37  1  0  0  0
 37 38  2  0  0  0
 40 41  2  0  0  0
M  END
>  <AUTHOR>
    GENERATED BY OPEN BABEL 2.3.2

>  <CHROM.1>
-56.66801088,-47.01642044,-24.78694728,-75.31787026,174.87435037,110.62258766
-85.83255251,-147.60711957,49.04929187,95.06954681,-177.54209259,156.55506348
165.89003291,62.82162603,-9.01720464,13.30219367,69.36252468,-1.43454609
0.84842592,2.43566998

>  <COMPND>
    UNNAMED

>  <MASTER>
        0    0    0    0    0    0    0    0   77    0   77    0

>  <Name>
ligands/mol10.pdb

>  <RI>
2.69082e+07

>  <Rbt.Current_Directory>
/home/rochoa/Projects/OCONDOR

>  <Rbt.Executable>
rbdock ($Id: //depot/dev/client3/rdock/2013.1/src/exe/rbdock.cxx#4 $)

>  <Rbt.Library>
libRbt.so (2013.1, Build901 2013/11/27)

>  <Rbt.Parameter_File>
dock.prm

>  <Rbt.Receptor>
rdock.prm

>  <SCORE>
-6.87524

>  <SCORE.INTER>
-8.06378

>  <SCORE.INTER.CONST>
1

>  <SCORE.INTER.POLAR>
-0.421405

>  <SCORE.INTER.REPUL>
0.115474

>  <SCORE.INTER.ROT>
13

>  <SCORE.INTER.VDW>
-25.6084

>  <SCORE.INTER.norm>
-0.196678

>  <SCORE.INTRA>
1.18854

>  <SCORE.INTRA.DIHEDRAL>
-2.94357

>  <SCORE.INTRA.DIHEDRAL.0>
15.2397

>  <SCORE.INTRA.POLAR>
0.13644

>  <SCORE.INTRA.POLAR.0>
-0.13644

>  <SCORE.INTRA.REPUL>
0

>  <SCORE.INTRA.REPUL.0>
0

>  <SCORE.INTRA.VDW>
2.19642

>  <SCORE.INTRA.VDW.0>
-4.66274

>  <SCORE.INTRA.norm>
0.0289887

>  <SCORE.RESTR>
0

>  <SCORE.RESTR.CAVITY>
0

>  <SCORE.RESTR.norm>
0

>  <SCORE.SYSTEM>
0

>  <SCORE.SYSTEM.CONST>
0

>  <SCORE.SYSTEM.DIHEDRAL>
0

>  <SCORE.SYSTEM.norm>
0

>  <SCORE.heavy>
41

>  <SCORE.norm>
-0.167689

$$$$
ligands/mol10.pdb
  rDOCK(R)          3D
libRbt.so/2013.1/901 2013/11/27
 47 50  0  0  0  0  0  0  0  0999 V2000
   -7.1869   19.0281   65.2477 N   0  0  0  0  0  0
   -8.3127   19.9030   66.1365 S   0  0  0  0  0  0
   -7.5541   20.6042   67.1543 O   0  0  0  0  0  0
   -9.1154   20.5867   65.1628 O   0  0  0  0  0  0
   -9.2747   18.6451   66.9259 C   0  0  0  0  0  0
   -8.6362   17.4750   67.3517 C   0  0  0  0  0  0
   -9.3805   16.4635   67.9625 C   0  0  0  0  0  0
  -10.7627   16.6086   68.1513 C   0  0  0  0  0  0
  -11.5613   15.5038   68.8143 C   0  0  0  0  0  0
  -11.7982   14.2967   67.9316 C   0  0  0  0  0  0
  -12.6611   14.3678   66.8311 C   0  0  0  0  0  0
  -12.8140   13.2714   65.9848 C   0  0  0  0  0  0
  -12.1025   12.0934   66.2267 C   0  0  0  0  0  0
  -11.3048   11.9759   67.3626 C   0  0  0  0  0  0
  -10.6583   10.7459   67.6093 N   0  0  0  0  0  0
   -9.8420   10.5253   68.7126 C   0  0  0  0  0  0
   -9.6634   11.3530   69.6051 O   0  0  0  0  0  0
   -9.1274    9.1666   68.7241 C   0  0  0  0  0  0
   -7.8857    9.1648   69.6483 C   0  0  0  0  0  0
   -6.9517    7.6011   69.8229 S   0  0  0  0  0  0
  -10.0502    7.9786   68.9333 C   0  0  0  0  0  0
  -11.0743    7.9790   69.8867 C   0  0  0  0  0  0
  -11.9153    6.8697   70.0218 C   0  0  0  0  0  0
  -13.0285    6.8372   71.0368 C   0  0  0  0  0  0
  -12.6826    6.0454   72.3043 C   0  0  0  0  0  0
  -11.6449    6.6807   73.0939 N   0  0  0  0  0  0
  -10.9347    5.9847   74.0501 C   0  0  0  0  0  0
  -11.0628    4.7778   74.2244 O   0  0  0  0  0  0
   -9.9986    6.8575   74.8885 C   0  0  0  0  0  0
   -9.6204    6.1875   76.2196 C   0  0  0  0  0  0
   -8.5977    5.0609   76.0557 C   0  0  0  0  0  0
   -7.3606    5.5014   75.2786 C   0  0  0  0  0  0
   -6.5833    6.3865   76.0824 O   0  0  0  0  0  0
   -7.7248    6.1549   73.9471 C   0  0  0  0  0  0
   -8.7544    7.2731   74.0967 C   0  0  0  0  0  0
  -11.6835    5.7836   69.1877 C   0  0  0  0  0  0
  -10.7189    5.7483   68.2482 N   0  0  0  0  0  0
   -9.9217    6.8334   68.1483 C   0  0  0  0  0  0
  -11.1511   13.0808   68.2065 C   0  0  0  0  0  0
  -11.3906   17.7839   67.7025 C   0  0  0  0  0  0
  -10.6498   18.8015   67.0921 C   0  0  0  0  0  0
   -6.5944   19.6727   64.7222 H   0  0  0  0  0  0
   -7.6837   18.3647   64.6485 H   0  0  0  0  0  0
  -11.0288    9.9324   67.1334 H   0  0  0  0  0  0
   -7.9472    6.9079   70.4109 H   0  0  0  0  0  0
  -11.6162    7.6923   73.1054 H   0  0  0  0  0  0
   -5.7406    6.5693   75.6381 H   0  0  0  0  0  0
  1  2  1  0  0  0
  1 42  1  0  0  0
  1 43  1  0  0  0
  2  3  2  0  0  0
  2  4  2  0  0  0
  2  5  1  0  0  0
  5  6  2  0  0  0
  5 41  1  0  0  0
  6  7  1  0  0  0
  7  8  2  0  0  0
  8  9  1  0  0  0
  8 40  1  0  0  0
  9 10  1  0  0  0
 10 11  2  0  0  0
 10 39  1  0  0  0
 11 12  1  0  0  0
 12 13  2  0  0  0
 13 14  1  0  0  0
 14 15  1  0  0  0
 14 39  2  0  0  0
 15 16  1  0  0  0
 15 44  1  0  0  0
 16 17  2  0  0  0
 16 18  1  0  0  0
 18 19  1  0  0  0
 18 21  1  0  0  0
 19 20  1  0  0  0
 20 45  1  0  0  0
 21 22  2  0  0  0
 21 38  1  0  0  0
 22 23  1  0  0  0
 23 24  1  0  0  0
 23 36  2  0  0  0
 24 25  1  0  0  0
 25 26  1  0  0  0
 26 27  1  0  0  0
 26 46  1  0  0  0
 27 28  2  0  0  0
 27 29  1  0  0  0
 29 30  1  0  0  0
 29 35  1  0  0  0
 30 31  1  0  0  0
 31 32  1  0  0  0
 32 33  1  0  0  0
 32 34  1  0  0  0
 33 47  1  0  0  0
 34 35  1  0  0  0
 36 37  1  0  0  0
 37 38  2  0  0  0
 40 41  2  0  0  0
M  END
>  <AUTHOR>
    GENERATED BY OPEN BABEL 2.3.2

>  <CHROM.1>
-68.13271290,35.84064880,-74.40419263,-70.12780960,-179.97986811,159.36751289
177.87582227,-43.56686347,-64.38760792,-100.53672424,67.33048577,-161.99293703
159.64902681,172.30306621,-9.86168718,11.23481380,69.69940040,-1.54989613
0.80462752,2.63141799

>  <COMPND>
    UNNAMED

>  <MASTER>
        0    0    0    0    0    0    0    0   77    0   77    0

>  <Name>
ligands/mol10.pdb

>  <RI>
2.69082e+07

>  <Rbt.Current_Directory>
/home/rochoa/Projects/OCONDOR

>  <Rbt.Executable>
rbdock ($Id: //depot/dev/client3/rdock/2013.1/src/exe/rbdock.cxx#4 $)

>  <Rbt.Library>
libRbt.so (2013.1, Build901 2013/11/27)

>  <Rbt.Parameter_File>
dock.prm

>  <Rbt.Receptor>
rdock.prm

>  <SCORE>
-10.4268

>  <SCORE.INTER>
-7.5882

>  <SCORE.INTER.CONST>
1

>  <SCORE.INTER.POLAR>
-0.843646

>  <SCORE.INTER.REPUL>
9.21232e-05

>  <SCORE.INTER.ROT>
13

>  <SCORE.INTER.VDW>
-23.1203

>  <SCORE.INTER.norm>
-0.185078

>  <SCORE.INTRA>
-2.83862

>  <SCORE.INTRA.DIHEDRAL>
-6.4169

>  <SCORE.INTRA.DIHEDRAL.0>
15.2397

>  <SCORE.INTRA.POLAR>
0.13644

>  <SCORE.INTRA.POLAR.0>
-0.13644

>  <SCORE.INTRA.REPUL>
0

>  <SCORE.INTRA.REPUL.0>
0

>  <SCORE.INTRA.VDW>
-0.0940691

>  <SCORE.INTRA.VDW.0>
-4.66274

>  <SCORE.INTRA.norm>
-0.0692347

>  <SCORE.RESTR>
0

>  <SCORE.RESTR.CAVITY>
0

>  <SCORE.RESTR.norm>
0

>  <SCORE.SYSTEM>
0

>  <SCORE.SYSTEM.CONST>
0

>  <SCORE.SYSTEM.DIHEDRAL>
0

>  <SCORE.SYSTEM.norm>
0

>  <SCORE.heavy>
41

>  <SCORE.norm>
-0.254313

$$$$
ligands/mol10.pdb
  rDOCK(R)          3D
libRbt.so/2013.1/901 2013/11/27
 47 50  0  0  0  0  0  0  0  0999 V2000
   -8.2286   16.8446   65.8173 N   0  0  0  0  0  0
   -7.1386   17.5905   66.8558 S   0  0  0  0  0  0
   -5.9104   17.7394   66.0991 O   0  0  0  0  0  0
   -7.8467   18.7102   67.4077 O   0  0  0  0  0  0
   -6.8750   16.3729   68.1122 C   0  0  0  0  0  0
   -5.6088   15.7893   68.2313 C   0  0  0  0  0  0
   -5.3846   14.8148   69.2060 C   0  0  0  0  0  0
   -6.4177   14.4139   70.0659 C   0  0  0  0  0  0
   -6.1640   13.3543   71.1198 C   0  0  0  0  0  0
   -6.1071   11.9423   70.5761 C   0  0  0  0  0  0
   -4.9335   11.1837   70.6646 C   0  0  0  0  0  0
   -4.9160    9.8610   70.2264 C   0  0  0  0  0  0
   -6.0727    9.2808   69.6992 C   0  0  0  0  0  0
   -7.2248   10.0445   69.5263 C   0  0  0  0  0  0
   -8.3504    9.4417   68.9252 N   0  0  0  0  0  0
   -9.6569    9.8244   69.2058 C   0  0  0  0  0  0
   -9.9486   10.7624   69.9466 O   0  0  0  0  0  0
  -10.7383    8.9541   68.5501 C   0  0  0  0  0  0
  -10.9337    9.2911   67.0520 C   0  0  0  0  0  0
  -11.3292   11.0218   66.6091 S   0  0  0  0  0  0
  -10.5987    7.4684   68.8321 C   0  0  0  0  0  0
   -9.3777    6.7932   68.7272 C   0  0  0  0  0  0
   -9.2959    5.4291   69.0244 C   0  0  0  0  0  0
   -7.9972    4.6716   68.9234 C   0  0  0  0  0  0
   -7.2223    4.5997   70.2454 C   0  0  0  0  0  0
   -7.0585    5.8993   70.8682 N   0  0  0  0  0  0
   -8.0104    6.4182   71.7213 C   0  0  0  0  0  0
   -8.9954    5.7833   72.0819 O   0  0  0  0  0  0
   -7.7406    7.8616   72.1511 C   0  0  0  0  0  0
   -8.8854    8.4355   73.0021 C   0  0  0  0  0  0
   -8.8967    7.8977   74.4348 C   0  0  0  0  0  0
   -7.5479    8.0559   75.1303 C   0  0  0  0  0  0
   -7.3179    9.4339   75.4163 O   0  0  0  0  0  0
   -6.4051    7.4751   74.2999 C   0  0  0  0  0  0
   -6.3908    7.9954   72.8640 C   0  0  0  0  0  0
  -10.4644    4.7856   69.4113 C   0  0  0  0  0  0
  -11.6559    5.4010   69.5386 N   0  0  0  0  0  0
  -11.7005    6.7166   69.2385 C   0  0  0  0  0  0
   -7.2386   11.3703   69.9718 C   0  0  0  0  0  0
   -7.6881   14.9990   69.9215 C   0  0  0  0  0  0
   -7.9179   15.9773   68.9483 C   0  0  0  0  0  0
   -8.3341   17.4096   64.9732 H   0  0  0  0  0  0
   -9.1112   16.7010   66.3137 H   0  0  0  0  0  0
   -8.1891    8.9280   68.0675 H   0  0  0  0  0  0
  -12.6000   10.9947   67.0579 H   0  0  0  0  0  0
   -6.3593    6.5207   70.4819 H   0  0  0  0  0  0
   -7.2643    9.9311   74.5852 H   0  0  0  0  0  0
  1  2  1  0  0  0
  1 42  1  0  0  0
  1 43  1  0  0  0
  2  3  2  0  0  0
  2  4  2  0  0  0
  2  5  1  0  0  0
  5  6  2  0  0  0
  5 41  1  0  0  0
  6  7  1  0  0  0
  7  8  2  0  0  0
  8  9  1  0  0  0
  8 40  1  0  0  0
  9 10  1  0  0  0
 10 11  2  0  0  0
 10 39  1  0  0  0
 11 12  1  0  0  0
 12 13  2  0  0  0
 13 14  1  0  0  0
 14 15  1  0  0  0
 14 39  2  0  0  0
 15 16  1  0  0  0
 15 44  1  0  0  0
 16 17  2  0  0  0
 16 18  1  0  0  0
 18 19  1  0  0  0
 18 21  1  0  0  0
 19 20  1  0  0  0
 20 45  1  0  0  0
 21 22  2  0  0  0
 21 38  1  0  0  0
 22 23  1  0  0  0
 23 24  1  0  0  0
 23 36  2  0  0  0
 24 25  1  0  0  0
 25 26  1  0  0  0
 26 27  1  0  0  0
 26 46  1  0  0  0
 27 28  2  0  0  0
 27 29  1  0  0  0
 29 30  1  0  0  0
 29 35  1  0  0  0
 30 31  1  0  0  0
 31 32  1  0  0  0
 32 33  1  0  0  0
 32 34  1  0  0  0
 33 47  1  0  0  0
 34 35  1  0  0  0
 36 37  1  0  0  0
 37 38  2  0  0  0
 40 41  2  0  0  0
M  END
>  <AUTHOR>
    GENERATED BY OPEN BABEL 2.3.2

>  <CHROM.1>
-57.23600955,113.76255235,-76.32035996,116.79339714,150.77669445,-77.91640624
-55.98061234,-46.38234202,-73.05207544,93.47947337,-50.62331052,87.42605966
175.13496531,-63.28527864,-8.09279495,10.55341368,69.76946744,1.33469618
-0.86648598,-0.52431213

>  <COMPND>
    UNNAMED

>  <MASTER>
        0    0    0    0    0    0    0    0   77    0   77    0

>  <Name>
ligands/mol10.pdb

>  <RI>
2.69082e+07

>  <Rbt.Current_Directory>
/home/rochoa/Projects/OCONDOR

>  <Rbt.Executable>
rbdock ($Id: //depot/dev/client3/rdock/2013.1/src/exe/rbdock.cxx#4 $)

>  <Rbt.Library>
libRbt.so (2013.1, Build901 2013/11/27)

>  <Rbt.Parameter_File>
dock.prm

>  <Rbt.Receptor>
rdock.prm

>  <SCORE>
-7.78626

>  <SCORE.INTER>
-3.51765

>  <SCORE.INTER.CONST>
1

>  <SCORE.INTER.POLAR>
-2.18095

>  <SCORE.INTER.REPUL>
0

>  <SCORE.INTER.ROT>
13

>  <SCORE.INTER.VDW>
-14.5024

>  <SCORE.INTER.norm>
-0.0857963

>  <SCORE.INTRA>
-4.26861

>  <SCORE.INTRA.DIHEDRAL>
-2.57228

>  <SCORE.INTRA.DIHEDRAL.0>
15.2397

>  <SCORE.INTRA.POLAR>
0.13644

>  <SCORE.INTRA.POLAR.0>
-0.13644

>  <SCORE.INTRA.REPUL>
0

>  <SCORE.INTRA.REPUL.0>
0

>  <SCORE.INTRA.VDW>
-3.44637

>  <SCORE.INTRA.VDW.0>
-4.66274

>  <SCORE.INTRA.norm>
-0.104112

>  <SCORE.RESTR>
0

>  <SCORE.RESTR.CAVITY>
0

>  <SCORE.RESTR.norm>
0

>  <SCORE.SYSTEM>
0

>  <SCORE.SYSTEM.CONST>
0

>  <SCORE.SYSTEM.DIHEDRAL>
0

>  <SCORE.SYSTEM.norm>
0

>  <SCORE.heavy>
41

>  <SCORE.norm>
-0.189909

$$$$
ligands/mol10.pdb
  rDOCK(R)          3D
libRbt.so/2013.1/901 2013/11/27
 47 50  0  0  0  0  0  0  0  0999 V2000
   -4.9236   22.0028   70.3328 N   0  0  0  0  0  0
   -5.1631   21.2697   68.8400 S   0  0  0  0  0  0
   -6.5660   21.4606   68.5266 O   0  0  0  0  0  0
   -4.1094   21.7656   68.0011 O   0  0  0  0  0  0
   -4.8967   19.5541   69.1816 C   0  0  0  0  0  0
   -5.4332   19.0081   70.3530 C   0  0  0  0  0  0
   -5.2207   17.6600   70.6487 C   0  0  0  0  0  0
   -4.4726   16.8483   69.7834 C   0  0  0  0  0  0
   -4.2469   15.3864   70.1146 C   0  0  0  0  0  0
   -5.2294   14.4434   69.4528 C   0  0  0  0  0  0
   -5.6688   14.6655   68.1419 C   0  0  0  0  0  0
   -6.5160   13.7509   67.5194 C   0  0  0  0  0  0
   -6.9295   12.6020   68.1988 C   0  0  0  0  0  0
   -6.5706   12.4067   69.5304 C   0  0  0  0  0  0
   -7.0663   11.2696   70.2035 N   0  0  0  0  0  0
   -7.2793   10.0482   69.5749 C   0  0  0  0  0  0
   -6.9934    9.8276   68.3988 O   0  0  0  0  0  0
   -7.9492    8.9806   70.4513 C   0  0  0  0  0  0
   -7.3051    8.8858   71.8556 C   0  0  0  0  0  0
   -8.0765    7.7623   73.0765 S   0  0  0  0  0  0
   -9.4659    9.0555   70.4753 C   0  0  0  0  0  0
  -10.2733    7.9252   70.6438 C   0  0  0  0  0  0
  -11.6656    8.0506   70.6863 C   0  0  0  0  0  0
  -12.5646    6.8549   70.8679 C   0  0  0  0  0  0
  -12.6264    6.3455   72.3136 C   0  0  0  0  0  0
  -11.3113    6.1430   72.8912 N   0  0  0  0  0  0
  -10.9513    4.9427   73.4680 C   0  0  0  0  0  0
  -11.6723    3.9513   73.4428 O   0  0  0  0  0  0
   -9.5889    4.9703   74.1638 C   0  0  0  0  0  0
   -9.6150    5.8062   75.4540 C   0  0  0  0  0  0
  -10.3139    5.0962   76.6156 C   0  0  0  0  0  0
   -9.7593    3.6970   76.8657 C   0  0  0  0  0  0
   -8.4515    3.7959   77.4256 O   0  0  0  0  0  0
   -9.7431    2.8528   75.5929 C   0  0  0  0  0  0
   -9.0586    3.5562   74.4228 C   0  0  0  0  0  0
  -12.1997    9.3249   70.5452 C   0  0  0  0  0  0
  -11.4582   10.4395   70.3955 N   0  0  0  0  0  0
  -10.1179   10.2820   70.3532 C   0  0  0  0  0  0
   -5.7165   13.3253   70.1494 C   0  0  0  0  0  0
   -3.9272   17.4174   68.6191 C   0  0  0  0  0  0
   -4.1386   18.7667   68.3165 C   0  0  0  0  0  0
   -4.0126   21.7279   70.7035 H   0  0  0  0  0  0
   -5.6981   21.7511   70.9515 H   0  0  0  0  0  0
   -6.9876   11.2668   71.2131 H   0  0  0  0  0  0
   -9.2259    8.4559   73.1989 H   0  0  0  0  0  0
  -10.7509    6.9636   73.0826 H   0  0  0  0  0  0
   -8.4984    4.2649   78.2734 H   0  0  0  0  0  0
  1  2  1  0  0  0
  1 42  1  0  0  0
  1 43  1  0  0  0
  2  3  2  0  0  0
  2  4  2  0  0  0
  2  5  1  0  0  0
  5  6  2  0  0  0
  5 41  1  0  0  0
  6  7  1  0  0  0
  7  8  2  0  0  0
  8  9  1  0  0  0
  8 40  1  0  0  0
  9 10  1  0  0  0
 10 11  2  0  0  0
 10 39  1  0  0  0
 11 12  1  0  0  0
 12 13  2  0  0  0
 13 14  1  0  0  0
 14 15  1  0  0  0
 14 39  2  0  0  0
 15 16  1  0  0  0
 15 44  1  0  0  0
 16 17  2  0  0  0
 16 18  1  0  0  0
 18 19  1  0  0  0
 18 21  1  0  0  0
 19 20  1  0  0  0
 20 45  1  0  0  0
 21 22  2  0  0  0
 21 38  1  0  0  0
 22 23  1  0  0  0
 23 24  1  0  0  0
 23 36  2  0  0  0
 24 25  1  0  0  0
 25 26  1  0  0  0
 26 27  1  0  0  0
 26 46  1  0  0  0
 27 28  2  0  0  0
 27 29  1  0  0  0
 29 30  1  0  0  0
 29 35  1  0  0  0
 30 31  1  0  0  0
 31 32  1  0  0  0
 32 33  1  0  0  0
 32 34  1  0  0  0
 33 47  1  0  0  0
 34 35  1  0  0  0
 36 37  1  0  0  0
 37 38  2  0  0  0
 40 41  2  0  0  0
M  END
>  <AUTHOR>
    GENERATED BY OPEN BABEL 2.3.2

>  <CHROM.1>
167.61413432,42.38090608,95.72145455,38.32051551,34.00789720,-46.39735808
174.86406088,149.38887353,-66.35221761,77.22638288,-50.60062974,-126.78253526
70.70098730,61.16039983,-7.86561730,11.45304656,71.16944525,-1.07306444,0.80495980
2.42511561

>  <COMPND>
    UNNAMED

>  <MASTER>
        0    0    0    0    0    0    0    0   77    0   77    0

>  <Name>
ligands/mol10.pdb

>  <RI>
2.69082e+07

>  <Rbt.Current_Directory>
/home/rochoa/Projects/OCONDOR

>  <Rbt.Executable>
rbdock ($Id: //depot/dev/client3/rdock/2013.1/src/exe/rbdock.cxx#4 $)

>  <Rbt.Library>
libRbt.so (2013.1, Build901 2013/11/27)

>  <Rbt.Parameter_File>
dock.prm

>  <Rbt.Receptor>
rdock.prm

>  <SCORE>
-4.43335

>  <SCORE.INTER>
-2.06257

>  <SCORE.INTER.CONST>
1

>  <SCORE.INTER.POLAR>
-0.246936

>  <SCORE.INTER.REPUL>
0

>  <SCORE.INTER.ROT>
13

>  <SCORE.INTER.VDW>
-19.623

>  <SCORE.INTER.norm>
-0.0503065

>  <SCORE.INTRA>
-2.3731

>  <SCORE.INTRA.DIHEDRAL>
-4.32343

>  <SCORE.INTRA.DIHEDRAL.0>
15.2397

>  <SCORE.INTRA.POLAR>
0.13644

>  <SCORE.INTRA.POLAR.0>
-0.13644

>  <SCORE.INTRA.REPUL>
0

>  <SCORE.INTRA.REPUL.0>
0

>  <SCORE.INTRA.VDW>
-0.675274

>  <SCORE.INTRA.VDW.0>
-4.66274

>  <SCORE.INTRA.norm>
-0.0578804

>  <SCORE.RESTR>
0.00231414

>  <SCORE.RESTR.CAVITY>
0.00231414

>  <SCORE.RESTR.norm>
5.64425e-05

>  <SCORE.SYSTEM>
0

>  <SCORE.SYSTEM.CONST>
0

>  <SCORE.SYSTEM.DIHEDRAL>
0

>  <SCORE.SYSTEM.norm>
0

>  <SCORE.heavy>
41

>  <SCORE.norm>
-0.10813

$$$$
