MODEL 1
REMARK VINA RESULT:      -8.3      0.000      0.000
REMARK  11 active torsions:
REMARK  status: ('A' for Active; 'I' for Inactive)
REMARK    1  A    between atoms: N_1  and  S_2 
REMARK    2  A    between atoms: S_2  and  C_5 
REMARK    3  A    between atoms: C_8  and  C_9 
REMARK    4  A    between atoms: C_9  and  C_10 
REMARK    5  A    between atoms: C_14  and  N_15 
REMARK       I    between atoms: N_15  and  C_16 
REMARK       I    between atoms: C_16  and  N_18 
REMARK    6  A    between atoms: N_18  and  C_19 
REMARK    7  A    between atoms: C_21  and  C_22 
REMARK    8  A    between atoms: C_22  and  C_23 
REMARK    9  A    between atoms: C_23  and  N_24 
REMARK       I    between atoms: N_24  and  C_25 
REMARK   10  A    between atoms: C_25  and  C_27 
REMARK   11  A    between atoms: C_30  and  O_31 
ROOT
HETATM    1  C   LIG     1     -15.079 -27.169  -1.720  1.00  0.00     0.051 C 
HETATM    2  C   LIG     1     -14.859 -26.262  -2.685  1.00  0.00    -0.063 C 
HETATM    3  C   LIG     1     -15.133 -24.782  -2.488  1.00  0.00     0.045 C 
HETATM    4  C   LIG     1     -16.162 -24.585  -1.367  1.00  0.00     0.250 C 
HETATM    5  O   LIG     1     -16.981 -23.669  -1.432  1.00  0.00    -0.271 OA
HETATM    6  N   LIG     1     -16.057 -25.390  -0.262  1.00  0.00    -0.224 NA
HETATM    7  C   LIG     1     -15.574 -26.577  -0.437  1.00  0.00     0.031 C 
HETATM    8  H   LIG     1     -14.475 -26.554  -3.657  1.00  0.00     0.081 H 
HETATM    9  H   LIG     1     -15.598 -24.405  -3.408  1.00  0.00     0.061 H 
HETATM   10  H   LIG     1     -15.482 -27.188   0.467  1.00  0.00     0.118 H 
ENDROOT
BRANCH   1  11
HETATM   11  N   LIG     1     -14.807 -28.511  -1.897  1.00  0.00    -0.308 N 
HETATM   12  C   LIG     1     -13.767 -29.211  -1.303  1.00  0.00     0.325 C 
HETATM   13  N   LIG     1     -13.746 -30.554  -1.650  1.00  0.00    -0.309 N 
HETATM   14  O   LIG     1     -12.969 -28.683  -0.540  1.00  0.00    -0.247 OA
HETATM   15  H   LIG     1     -14.616 -30.960  -1.963  1.00  0.00     0.170 HD
HETATM   16  H   LIG     1     -15.415 -29.024  -2.517  1.00  0.00     0.170 HD
BRANCH  13  17
HETATM   17  C   LIG     1     -12.742 -31.456  -1.197  1.00  0.00     0.036 A 
HETATM   18  C   LIG     1     -12.866 -32.155   0.007  1.00  0.00    -0.057 A 
HETATM   19  C   LIG     1     -11.960 -33.148   0.352  1.00  0.00    -0.080 A 
HETATM   20  H   LIG     1     -13.682 -31.968   0.698  1.00  0.00     0.086 H 
HETATM   21  C   LIG     1     -10.884 -33.428  -0.482  1.00  0.00    -0.076 A 
HETATM   22  H   LIG     1     -12.115 -33.724   1.261  1.00  0.00     0.083 H 
HETATM   23  C   LIG     1     -10.665 -32.681  -1.649  1.00  0.00    -0.052 A 
HETATM   24  H   LIG     1     -10.228 -34.246  -0.199  1.00  0.00     0.084 H 
HETATM   25  C   LIG     1     -11.610 -31.689  -1.996  1.00  0.00    -0.051 A 
HETATM   26  H   LIG     1     -11.477 -31.136  -2.924  1.00  0.00     0.087 H 
BRANCH  23  27
HETATM   27  C   LIG     1      -9.517 -33.004  -2.588  1.00  0.00    -0.017 C 
HETATM   28  H   LIG     1      -9.806 -33.863  -3.209  1.00  0.00     0.047 H 
HETATM   29  H   LIG     1      -9.362 -32.166  -3.279  1.00  0.00     0.047 H 
BRANCH  27  30
HETATM   30  C   LIG     1      -8.190 -33.302  -1.905  1.00  0.00    -0.054 A 
HETATM   31  C   LIG     1      -7.576 -34.556  -2.056  1.00  0.00    -0.075 A 
HETATM   32  C   LIG     1      -6.313 -34.812  -1.511  1.00  0.00    -0.060 A 
HETATM   33  H   LIG     1      -8.087 -35.340  -2.619  1.00  0.00     0.084 H 
HETATM   34  C   LIG     1      -5.650 -33.800  -0.816  1.00  0.00     0.074 A 
HETATM   35  H   LIG     1      -5.882 -35.804  -1.646  1.00  0.00     0.085 H 
HETATM   36  C   LIG     1      -6.255 -32.549  -0.632  1.00  0.00    -0.060 A 
HETATM   37  C   LIG     1      -7.521 -32.305  -1.177  1.00  0.00    -0.075 A 
HETATM   38  H   LIG     1      -5.750 -31.765  -0.072  1.00  0.00     0.085 H 
HETATM   39  H   LIG     1      -7.970 -31.320  -1.053  1.00  0.00     0.084 H 
BRANCH  34  40
HETATM   40  S   LIG     1      -4.024 -34.059  -0.130  1.00  0.00     0.239 S 
HETATM   41  O   LIG     1      -3.144 -33.005  -0.623  1.00  0.00    -0.206 OA
HETATM   42  O   LIG     1      -3.712 -35.447  -0.299  1.00  0.00    -0.206 OA
BRANCH  40  43
HETATM   43  N   LIG     1      -4.309 -33.801   1.525  1.00  0.00    -0.225 NA
HETATM   44  H   LIG     1      -5.205 -34.140   1.879  1.00  0.00     0.136 HD
HETATM   45  H   LIG     1      -3.526 -34.034   2.149  1.00  0.00     0.136 HD
ENDBRANCH  40  43
ENDBRANCH  34  40
ENDBRANCH  27  30
ENDBRANCH  23  27
ENDBRANCH  13  17
ENDBRANCH   1  11
BRANCH   3  46
HETATM   46  C   LIG     1     -13.830 -24.014  -2.198  1.00  0.00    -0.036 C 
HETATM   47  H   LIG     1     -13.861 -23.057  -2.735  1.00  0.00     0.037 H 
HETATM   48  H   LIG     1     -12.972 -24.566  -2.608  1.00  0.00     0.037 H 
BRANCH  46  49
HETATM   49  C   LIG     1     -13.578 -23.749  -0.707  1.00  0.00    -0.004 C 
HETATM   50  H   LIG     1     -14.526 -23.642  -0.172  1.00  0.00     0.064 H 
HETATM   51  H   LIG     1     -12.995 -22.832  -0.569  1.00  0.00     0.064 H 
BRANCH  49  52
HETATM   52  N   LIG     1     -12.875 -24.852  -0.055  1.00  0.00    -0.361 N 
HETATM   53  C   LIG     1     -11.555 -24.795   0.325  1.00  0.00     0.221 C 
HETATM   54  O   LIG     1     -10.852 -23.807   0.113  1.00  0.00    -0.273 OA
HETATM   55  H   LIG     1     -13.441 -25.645   0.235  1.00  0.00     0.162 HD
BRANCH  53  56
HETATM   56  C   LIG     1     -11.000 -26.101   0.942  1.00  0.00     0.024 C 
HETATM   57  C   LIG     1      -9.838 -25.860   1.921  1.00  0.00    -0.051 C 
HETATM   58  C   LIG     1     -10.275 -25.290   3.276  1.00  0.00    -0.040 C 
HETATM   59  H   LIG     1      -9.089 -25.194   1.475  1.00  0.00     0.034 H 
HETATM   60  H   LIG     1      -9.328 -26.817   2.096  1.00  0.00     0.034 H 
HETATM   61  C   LIG     1     -11.472 -25.997   3.911  1.00  0.00     0.035 C 
HETATM   62  H   LIG     1     -10.516 -24.229   3.147  1.00  0.00     0.036 H 
HETATM   63  H   LIG     1      -9.417 -25.342   3.962  1.00  0.00     0.036 H 
HETATM   64  C   LIG     1     -12.586 -26.331   2.907  1.00  0.00    -0.040 C 
HETATM   65  H   LIG     1     -11.892 -25.352   4.690  1.00  0.00     0.082 H 
HETATM   66  C   LIG     1     -12.051 -26.978   1.632  1.00  0.00    -0.051 C 
HETATM   67  H   LIG     1     -13.124 -25.412   2.643  1.00  0.00     0.036 H 
HETATM   68  H   LIG     1     -13.306 -27.013   3.370  1.00  0.00     0.036 H 
HETATM   69  H   LIG     1     -12.885 -27.212   0.965  1.00  0.00     0.034 H 
HETATM   70  H   LIG     1     -11.592 -27.944   1.883  1.00  0.00     0.034 H 
HETATM   71  H   LIG     1     -10.593 -26.662   0.090  1.00  0.00     0.054 H 
BRANCH  61  72
HETATM   72  O   LIG     1     -11.036 -27.179   4.572  1.00  0.00    -0.396 OA
HETATM   73  H   LIG     1     -11.577 -27.323   5.361  1.00  0.00     0.210 HD
ENDBRANCH  61  72
ENDBRANCH  53  56
ENDBRANCH  49  52
ENDBRANCH  46  49
ENDBRANCH   3  46
TORSDOF 11
ENDMDL
MODEL 2
REMARK VINA RESULT:      -8.3      4.532     10.374
REMARK  11 active torsions:
REMARK  status: ('A' for Active; 'I' for Inactive)
REMARK    1  A    between atoms: N_1  and  S_2 
REMARK    2  A    between atoms: S_2  and  C_5 
REMARK    3  A    between atoms: C_8  and  C_9 
REMARK    4  A    between atoms: C_9  and  C_10 
REMARK    5  A    between atoms: C_14  and  N_15 
REMARK       I    between atoms: N_15  and  C_16 
REMARK       I    between atoms: C_16  and  N_18 
REMARK    6  A    between atoms: N_18  and  C_19 
REMARK    7  A    between atoms: C_21  and  C_22 
REMARK    8  A    between atoms: C_22  and  C_23 
REMARK    9  A    between atoms: C_23  and  N_24 
REMARK       I    between atoms: N_24  and  C_25 
REMARK   10  A    between atoms: C_25  and  C_27 
REMARK   11  A    between atoms: C_30  and  O_31 
ROOT
HETATM    1  C   LIG     1     -11.441 -32.912  -6.421  1.00  0.00     0.051 C 
HETATM    2  C   LIG     1     -10.401 -33.755  -6.325  1.00  0.00    -0.063 C 
HETATM    3  C   LIG     1      -9.374 -33.908  -7.432  1.00  0.00     0.045 C 
HETATM    4  C   LIG     1      -9.977 -33.467  -8.771  1.00  0.00     0.250 C 
HETATM    5  O   LIG     1      -9.661 -34.039  -9.813  1.00  0.00    -0.271 OA
HETATM    6  N   LIG     1     -10.784 -32.357  -8.768  1.00  0.00    -0.224 NA
HETATM    7  C   LIG     1     -11.461 -32.121  -7.691  1.00  0.00     0.031 C 
HETATM    8  H   LIG     1     -10.253 -34.370  -5.443  1.00  0.00     0.081 H 
HETATM    9  H   LIG     1      -9.148 -34.978  -7.529  1.00  0.00     0.061 H 
HETATM   10  H   LIG     1     -12.079 -31.216  -7.711  1.00  0.00     0.118 H 
ENDROOT
BRANCH   1  11
HETATM   11  N   LIG     1     -12.361 -32.760  -5.402  1.00  0.00    -0.308 N 
HETATM   12  C   LIG     1     -12.268 -31.851  -4.358  1.00  0.00     0.325 C 
HETATM   13  N   LIG     1     -13.347 -31.909  -3.487  1.00  0.00    -0.309 N 
HETATM   14  O   LIG     1     -11.331 -31.073  -4.243  1.00  0.00    -0.247 OA
HETATM   15  H   LIG     1     -14.208 -32.294  -3.850  1.00  0.00     0.170 HD
HETATM   16  H   LIG     1     -13.166 -33.368  -5.416  1.00  0.00     0.170 HD
BRANCH  13  17
HETATM   17  C   LIG     1     -13.445 -31.102  -2.319  1.00  0.00     0.036 A 
HETATM   18  C   LIG     1     -12.389 -30.989  -1.410  1.00  0.00    -0.057 A 
HETATM   19  C   LIG     1     -12.439 -30.074  -0.368  1.00  0.00    -0.080 A 
HETATM   20  H   LIG     1     -11.488 -31.588  -1.499  1.00  0.00     0.086 H 
HETATM   21  C   LIG     1     -13.570 -29.286  -0.189  1.00  0.00    -0.076 A 
HETATM   22  H   LIG     1     -11.579 -29.957   0.287  1.00  0.00     0.083 H 
HETATM   23  C   LIG     1     -14.692 -29.440  -1.016  1.00  0.00    -0.052 A 
HETATM   24  H   LIG     1     -13.548 -28.549   0.608  1.00  0.00     0.084 H 
HETATM   25  C   LIG     1     -14.615 -30.360  -2.086  1.00  0.00    -0.051 A 
HETATM   26  H   LIG     1     -15.460 -30.453  -2.764  1.00  0.00     0.087 H 
BRANCH  23  27
HETATM   27  C   LIG     1     -15.917 -28.557  -0.856  1.00  0.00    -0.017 C 
HETATM   28  H   LIG     1     -16.668 -28.866  -1.593  1.00  0.00     0.047 H 
HETATM   29  H   LIG     1     -16.366 -28.729   0.130  1.00  0.00     0.047 H 
BRANCH  27  30
HETATM   30  C   LIG     1     -15.658 -27.063  -0.999  1.00  0.00    -0.054 A 
HETATM   31  C   LIG     1     -15.598 -26.238   0.136  1.00  0.00    -0.075 A 
HETATM   32  C   LIG     1     -15.271 -24.883   0.027  1.00  0.00    -0.060 A 
HETATM   33  H   LIG     1     -15.800 -26.664   1.121  1.00  0.00     0.084 H 
HETATM   34  C   LIG     1     -14.987 -24.347  -1.230  1.00  0.00     0.074 A 
HETATM   35  H   LIG     1     -15.248 -24.281   0.935  1.00  0.00     0.085 H 
HETATM   36  C   LIG     1     -15.065 -25.146  -2.379  1.00  0.00    -0.060 A 
HETATM   37  C   LIG     1     -15.399 -26.499  -2.259  1.00  0.00    -0.075 A 
HETATM   38  H   LIG     1     -14.866 -24.725  -3.362  1.00  0.00     0.085 H 
HETATM   39  H   LIG     1     -15.429 -27.119  -3.155  1.00  0.00     0.084 H 
BRANCH  34  40
HETATM   40  S   LIG     1     -14.529 -22.633  -1.425  1.00  0.00     0.239 S 
HETATM   41  O   LIG     1     -14.365 -22.360  -2.848  1.00  0.00    -0.206 OA
HETATM   42  O   LIG     1     -13.488 -22.366  -0.477  1.00  0.00    -0.206 OA
BRANCH  40  43
HETATM   43  N   LIG     1     -15.930 -21.843  -0.877  1.00  0.00    -0.225 NA
HETATM   44  H   LIG     1     -16.603 -21.580  -1.599  1.00  0.00     0.136 HD
HETATM   45  H   LIG     1     -16.381 -22.265  -0.056  1.00  0.00     0.136 HD
ENDBRANCH  40  43
ENDBRANCH  34  40
ENDBRANCH  27  30
ENDBRANCH  23  27
ENDBRANCH  13  17
ENDBRANCH   1  11
BRANCH   3  46
HETATM   46  C   LIG     1      -8.090 -33.122  -7.105  1.00  0.00    -0.036 C 
HETATM   47  H   LIG     1      -8.342 -32.320  -6.400  1.00  0.00     0.037 H 
HETATM   48  H   LIG     1      -7.716 -32.626  -8.012  1.00  0.00     0.037 H 
BRANCH  46  49
HETATM   49  C   LIG     1      -6.964 -33.981  -6.514  1.00  0.00    -0.004 C 
HETATM   50  H   LIG     1      -6.012 -33.443  -6.553  1.00  0.00     0.064 H 
HETATM   51  H   LIG     1      -6.857 -34.918  -7.070  1.00  0.00     0.064 H 
BRANCH  49  52
HETATM   52  N   LIG     1      -7.185 -34.297  -5.104  1.00  0.00    -0.361 N 
HETATM   53  C   LIG     1      -6.631 -33.584  -4.068  1.00  0.00     0.221 C 
HETATM   54  O   LIG     1      -5.874 -32.632  -4.256  1.00  0.00    -0.273 OA
HETATM   55  H   LIG     1      -7.885 -35.006  -4.901  1.00  0.00     0.162 HD
BRANCH  53  56
HETATM   56  C   LIG     1      -6.950 -34.133  -2.657  1.00  0.00     0.024 C 
HETATM   57  C   LIG     1      -6.648 -33.126  -1.534  1.00  0.00    -0.051 C 
HETATM   58  C   LIG     1      -7.671 -31.988  -1.429  1.00  0.00    -0.040 C 
HETATM   59  H   LIG     1      -5.646 -32.699  -1.658  1.00  0.00     0.034 H 
HETATM   60  H   LIG     1      -6.633 -33.667  -0.578  1.00  0.00     0.034 H 
HETATM   61  C   LIG     1      -9.131 -32.434  -1.473  1.00  0.00     0.035 C 
HETATM   62  H   LIG     1      -7.490 -31.280  -2.246  1.00  0.00     0.036 H 
HETATM   63  H   LIG     1      -7.484 -31.446  -0.491  1.00  0.00     0.036 H 
HETATM   64  C   LIG     1      -9.406 -33.519  -2.525  1.00  0.00    -0.040 C 
HETATM   65  H   LIG     1      -9.760 -31.567  -1.699  1.00  0.00     0.082 H 
HETATM   66  C   LIG     1      -8.382 -34.651  -2.482  1.00  0.00    -0.051 C 
HETATM   67  H   LIG     1      -9.397 -33.066  -3.524  1.00  0.00     0.036 H 
HETATM   68  H   LIG     1     -10.403 -33.943  -2.365  1.00  0.00     0.036 H 
HETATM   69  H   LIG     1      -8.637 -35.401  -3.236  1.00  0.00     0.034 H 
HETATM   70  H   LIG     1      -8.454 -35.165  -1.515  1.00  0.00     0.034 H 
HETATM   71  H   LIG     1      -6.263 -34.980  -2.525  1.00  0.00     0.054 H 
BRANCH  61  72
HETATM   72  O   LIG     1      -9.534 -32.887  -0.185  1.00  0.00    -0.396 OA
HETATM   73  H   LIG     1      -8.949 -33.604   0.100  1.00  0.00     0.210 HD
ENDBRANCH  61  72
ENDBRANCH  53  56
ENDBRANCH  49  52
ENDBRANCH  46  49
ENDBRANCH   3  46
TORSDOF 11
ENDMDL
MODEL 3
REMARK VINA RESULT:      -8.2      3.767      4.192
REMARK  11 active torsions:
REMARK  status: ('A' for Active; 'I' for Inactive)
REMARK    1  A    between atoms: N_1  and  S_2 
REMARK    2  A    between atoms: S_2  and  C_5 
REMARK    3  A    between atoms: C_8  and  C_9 
REMARK    4  A    between atoms: C_9  and  C_10 
REMARK    5  A    between atoms: C_14  and  N_15 
REMARK       I    between atoms: N_15  and  C_16 
REMARK       I    between atoms: C_16  and  N_18 
REMARK    6  A    between atoms: N_18  and  C_19 
REMARK    7  A    between atoms: C_21  and  C_22 
REMARK    8  A    between atoms: C_22  and  C_23 
REMARK    9  A    between atoms: C_23  and  N_24 
REMARK       I    between atoms: N_24  and  C_25 
REMARK   10  A    between atoms: C_25  and  C_27 
REMARK   11  A    between atoms: C_30  and  O_31 
ROOT
HETATM    1  C   LIG     1     -15.256 -27.191  -1.226  1.00  0.00     0.051 C 
HETATM    2  C   LIG     1     -15.147 -26.488  -2.364  1.00  0.00    -0.063 C 
HETATM    3  C   LIG     1     -15.335 -24.983  -2.412  1.00  0.00     0.045 C 
HETATM    4  C   LIG     1     -16.180 -24.522  -1.218  1.00  0.00     0.250 C 
HETATM    5  O   LIG     1     -16.967 -23.584  -1.339  1.00  0.00    -0.271 OA
HETATM    6  N   LIG     1     -15.944 -25.121  -0.006  1.00  0.00    -0.224 NA
HETATM    7  C   LIG     1     -15.535 -26.348  -0.021  1.00  0.00     0.031 C 
HETATM    8  H   LIG     1     -14.920 -26.974  -3.308  1.00  0.00     0.081 H 
HETATM    9  H   LIG     1     -15.916 -24.749  -3.314  1.00  0.00     0.061 H 
HETATM   10  H   LIG     1     -15.335 -26.791   0.961  1.00  0.00     0.118 H 
ENDROOT
BRANCH   1  11
HETATM   11  N   LIG     1     -15.062 -28.557  -1.184  1.00  0.00    -0.308 N 
HETATM   12  C   LIG     1     -13.839 -29.197  -1.045  1.00  0.00     0.325 C 
HETATM   13  N   LIG     1     -13.947 -30.580  -1.017  1.00  0.00    -0.309 N 
HETATM   14  O   LIG     1     -12.784 -28.586  -0.941  1.00  0.00    -0.247 OA
HETATM   15  H   LIG     1     -14.840 -30.965  -0.741  1.00  0.00     0.170 HD
HETATM   16  H   LIG     1     -15.882 -29.140  -1.269  1.00  0.00     0.170 HD
BRANCH  13  17
HETATM   17  C   LIG     1     -12.820 -31.444  -0.928  1.00  0.00     0.036 A 
HETATM   18  C   LIG     1     -12.486 -32.103   0.259  1.00  0.00    -0.057 A 
HETATM   19  C   LIG     1     -11.486 -33.064   0.286  1.00  0.00    -0.080 A 
HETATM   20  H   LIG     1     -13.010 -31.908   1.190  1.00  0.00     0.086 H 
HETATM   21  C   LIG     1     -10.767 -33.351  -0.869  1.00  0.00    -0.076 A 
HETATM   22  H   LIG     1     -11.290 -33.611   1.205  1.00  0.00     0.083 H 
HETATM   23  C   LIG     1     -11.000 -32.641  -2.056  1.00  0.00    -0.052 A 
HETATM   24  H   LIG     1     -10.028 -34.144  -0.817  1.00  0.00     0.084 H 
HETATM   25  C   LIG     1     -12.037 -31.681  -2.071  1.00  0.00    -0.051 A 
HETATM   26  H   LIG     1     -12.260 -31.159  -2.998  1.00  0.00     0.087 H 
BRANCH  23  27
HETATM   27  C   LIG     1     -10.250 -32.973  -3.334  1.00  0.00    -0.017 C 
HETATM   28  H   LIG     1      -9.291 -33.436  -3.065  1.00  0.00     0.047 H 
HETATM   29  H   LIG     1     -10.807 -33.730  -3.899  1.00  0.00     0.047 H 
BRANCH  27  30
HETATM   30  C   LIG     1      -9.995 -31.790  -4.257  1.00  0.00    -0.054 A 
HETATM   31  C   LIG     1     -10.625 -31.715  -5.510  1.00  0.00    -0.075 A 
HETATM   32  C   LIG     1     -10.473 -30.592  -6.330  1.00  0.00    -0.060 A 
HETATM   33  H   LIG     1     -11.254 -32.543  -5.845  1.00  0.00     0.084 H 
HETATM   34  C   LIG     1      -9.690 -29.524  -5.887  1.00  0.00     0.074 A 
HETATM   35  H   LIG     1     -10.973 -30.585  -7.298  1.00  0.00     0.085 H 
HETATM   36  C   LIG     1      -9.032 -29.588  -4.652  1.00  0.00    -0.060 A 
HETATM   37  C   LIG     1      -9.187 -30.719  -3.842  1.00  0.00    -0.075 A 
HETATM   38  H   LIG     1      -8.403 -28.767  -4.314  1.00  0.00     0.085 H 
HETATM   39  H   LIG     1      -8.695 -30.747  -2.870  1.00  0.00     0.084 H 
BRANCH  34  40
HETATM   40  S   LIG     1      -9.489 -28.052  -6.875  1.00  0.00     0.239 S 
HETATM   41  O   LIG     1     -10.418 -27.040  -6.385  1.00  0.00    -0.206 OA
HETATM   42  O   LIG     1      -9.471 -28.464  -8.247  1.00  0.00    -0.206 OA
BRANCH  40  43
HETATM   43  N   LIG     1      -7.907 -27.583  -6.466  1.00  0.00    -0.225 NA
HETATM   44  H   LIG     1      -7.776 -27.252  -5.508  1.00  0.00     0.136 HD
HETATM   45  H   LIG     1      -7.166 -28.228  -6.764  1.00  0.00     0.136 HD
ENDBRANCH  40  43
ENDBRANCH  34  40
ENDBRANCH  27  30
ENDBRANCH  23  27
ENDBRANCH  13  17
ENDBRANCH   1  11
BRANCH   3  46
HETATM   46  C   LIG     1     -13.976 -24.259  -2.453  1.00  0.00    -0.036 C 
HETATM   47  H   LIG     1     -14.073 -23.369  -3.090  1.00  0.00     0.037 H 
HETATM   48  H   LIG     1     -13.226 -24.900  -2.936  1.00  0.00     0.037 H 
BRANCH  46  49
HETATM   49  C   LIG     1     -13.449 -23.838  -1.073  1.00  0.00    -0.004 C 
HETATM   50  H   LIG     1     -14.277 -23.547  -0.420  1.00  0.00     0.064 H 
HETATM   51  H   LIG     1     -12.762 -22.990  -1.163  1.00  0.00     0.064 H 
BRANCH  49  52
HETATM   52  N   LIG     1     -12.760 -24.926  -0.384  1.00  0.00    -0.361 N 
HETATM   53  C   LIG     1     -11.540 -24.785   0.233  1.00  0.00     0.221 C 
HETATM   54  O   LIG     1     -10.917 -23.724   0.223  1.00  0.00    -0.273 OA
HETATM   55  H   LIG     1     -13.283 -25.789  -0.258  1.00  0.00     0.162 HD
BRANCH  53  56
HETATM   56  C   LIG     1     -10.968 -26.085   0.848  1.00  0.00     0.024 C 
HETATM   57  C   LIG     1      -9.856 -25.828   1.880  1.00  0.00    -0.051 C 
HETATM   58  C   LIG     1     -10.368 -25.300   3.225  1.00  0.00    -0.040 C 
HETATM   59  H   LIG     1      -9.112 -25.128   1.478  1.00  0.00     0.034 H 
HETATM   60  H   LIG     1      -9.323 -26.771   2.058  1.00  0.00     0.034 H 
HETATM   61  C   LIG     1     -11.566 -26.056   3.796  1.00  0.00     0.035 C 
HETATM   62  H   LIG     1     -10.637 -24.244   3.107  1.00  0.00     0.036 H 
HETATM   63  H   LIG     1      -9.538 -25.338   3.946  1.00  0.00     0.036 H 
HETATM   64  C   LIG     1     -12.626 -26.406   2.739  1.00  0.00    -0.040 C 
HETATM   65  H   LIG     1     -12.039 -25.441   4.568  1.00  0.00     0.082 H 
HETATM   66  C   LIG     1     -12.018 -27.009   1.476  1.00  0.00    -0.051 C 
HETATM   67  H   LIG     1     -13.182 -25.499   2.471  1.00  0.00     0.036 H 
HETATM   68  H   LIG     1     -13.342 -27.119   3.159  1.00  0.00     0.036 H 
HETATM   69  H   LIG     1     -12.815 -27.256   0.770  1.00  0.00     0.034 H 
HETATM   70  H   LIG     1     -11.538 -27.965   1.728  1.00  0.00     0.034 H 
HETATM   71  H   LIG     1     -10.508 -26.615   0.003  1.00  0.00     0.054 H 
BRANCH  61  72
HETATM   72  O   LIG     1     -11.120 -27.238   4.452  1.00  0.00    -0.396 OA
HETATM   73  H   LIG     1     -11.338 -28.008   3.908  1.00  0.00     0.210 HD
ENDBRANCH  61  72
ENDBRANCH  53  56
ENDBRANCH  49  52
ENDBRANCH  46  49
ENDBRANCH   3  46
TORSDOF 11
ENDMDL
MODEL 4
REMARK VINA RESULT:      -8.0      4.832      7.985
REMARK  11 active torsions:
REMARK  status: ('A' for Active; 'I' for Inactive)
REMARK    1  A    between atoms: N_1  and  S_2 
REMARK    2  A    between atoms: S_2  and  C_5 
REMARK    3  A    between atoms: C_8  and  C_9 
REMARK    4  A    between atoms: C_9  and  C_10 
REMARK    5  A    between atoms: C_14  and  N_15 
REMARK       I    between atoms: N_15  and  C_16 
REMARK       I    between atoms: C_16  and  N_18 
REMARK    6  A    between atoms: N_18  and  C_19 
REMARK    7  A    between atoms: C_21  and  C_22 
REMARK    8  A    between atoms: C_22  and  C_23 
REMARK    9  A    between atoms: C_23  and  N_24 
REMARK       I    between atoms: N_24  and  C_25 
REMARK   10  A    between atoms: C_25  and  C_27 
REMARK   11  A    between atoms: C_30  and  O_31 
ROOT
HETATM    1  C   LIG     1      -9.939 -33.182  -2.465  1.00  0.00     0.051 C 
HETATM    2  C   LIG     1     -10.283 -32.090  -1.765  1.00  0.00    -0.063 C 
HETATM    3  C   LIG     1     -11.140 -30.984  -2.353  1.00  0.00     0.045 C 
HETATM    4  C   LIG     1     -11.045 -31.005  -3.883  1.00  0.00     0.250 C 
HETATM    5  O   LIG     1     -11.077 -29.953  -4.522  1.00  0.00    -0.271 OA
HETATM    6  N   LIG     1     -11.033 -32.230  -4.500  1.00  0.00    -0.224 NA
HETATM    7  C   LIG     1     -10.511 -33.217  -3.848  1.00  0.00     0.031 C 
HETATM    8  H   LIG     1      -9.957 -31.952  -0.739  1.00  0.00     0.081 H 
HETATM    9  H   LIG     1     -10.714 -30.026  -2.027  1.00  0.00     0.061 H 
HETATM   10  H   LIG     1     -10.536 -34.187  -4.358  1.00  0.00     0.118 H 
ENDROOT
BRANCH   1  11
HETATM   11  N   LIG     1      -9.178 -34.197  -1.918  1.00  0.00    -0.308 N 
HETATM   12  C   LIG     1      -7.855 -34.474  -2.230  1.00  0.00     0.325 C 
HETATM   13  N   LIG     1      -7.339 -35.543  -1.511  1.00  0.00    -0.309 N 
HETATM   14  O   LIG     1      -7.219 -33.820  -3.045  1.00  0.00    -0.247 OA
HETATM   15  H   LIG     1      -7.790 -35.767  -0.635  1.00  0.00     0.170 HD
HETATM   16  H   LIG     1      -9.627 -34.790  -1.237  1.00  0.00     0.170 HD
BRANCH  13  17
HETATM   17  C   LIG     1      -6.017 -36.036  -1.699  1.00  0.00     0.036 A 
HETATM   18  C   LIG     1      -4.938 -35.561  -0.947  1.00  0.00    -0.057 A 
HETATM   19  C   LIG     1      -3.691 -36.165  -1.026  1.00  0.00    -0.080 A 
HETATM   20  H   LIG     1      -5.040 -34.726  -0.260  1.00  0.00     0.086 H 
HETATM   21  C   LIG     1      -3.489 -37.230  -1.897  1.00  0.00    -0.076 A 
HETATM   22  H   LIG     1      -2.885 -35.821  -0.383  1.00  0.00     0.083 H 
HETATM   23  C   LIG     1      -4.517 -37.672  -2.744  1.00  0.00    -0.052 A 
HETATM   24  H   LIG     1      -2.513 -37.705  -1.892  1.00  0.00     0.084 H 
HETATM   25  C   LIG     1      -5.785 -37.060  -2.633  1.00  0.00    -0.051 A 
HETATM   26  H   LIG     1      -6.604 -37.426  -3.249  1.00  0.00     0.087 H 
BRANCH  23  27
HETATM   27  C   LIG     1      -4.320 -38.859  -3.669  1.00  0.00    -0.017 C 
HETATM   28  H   LIG     1      -4.745 -38.611  -4.650  1.00  0.00     0.047 H 
HETATM   29  H   LIG     1      -3.247 -39.021  -3.833  1.00  0.00     0.047 H 
BRANCH  27  30
HETATM   30  C   LIG     1      -4.923 -40.167  -3.176  1.00  0.00    -0.054 A 
HETATM   31  C   LIG     1      -5.567 -41.037  -4.071  1.00  0.00    -0.075 A 
HETATM   32  C   LIG     1      -6.044 -42.283  -3.651  1.00  0.00    -0.060 A 
HETATM   33  H   LIG     1      -5.687 -40.741  -5.115  1.00  0.00     0.084 H 
HETATM   34  C   LIG     1      -5.865 -42.670  -2.322  1.00  0.00     0.074 A 
HETATM   35  H   LIG     1      -6.547 -42.918  -4.380  1.00  0.00     0.085 H 
HETATM   36  C   LIG     1      -5.247 -41.808  -1.406  1.00  0.00    -0.060 A 
HETATM   37  C   LIG     1      -4.779 -40.561  -1.836  1.00  0.00    -0.075 A 
HETATM   38  H   LIG     1      -5.126 -42.098  -0.365  1.00  0.00     0.085 H 
HETATM   39  H   LIG     1      -4.273 -39.910  -1.123  1.00  0.00     0.084 H 
BRANCH  34  40
HETATM   40  S   LIG     1      -6.421 -44.262  -1.738  1.00  0.00     0.239 S 
HETATM   41  O   LIG     1      -5.273 -45.160  -1.689  1.00  0.00    -0.206 OA
HETATM   42  O   LIG     1      -7.608 -44.588  -2.472  1.00  0.00    -0.206 OA
BRANCH  40  43
HETATM   43  N   LIG     1      -6.893 -43.894  -0.147  1.00  0.00    -0.225 NA
HETATM   44  H   LIG     1      -7.446 -43.042  -0.035  1.00  0.00     0.136 HD
HETATM   45  H   LIG     1      -7.270 -44.681   0.393  1.00  0.00     0.136 HD
ENDBRANCH  40  43
ENDBRANCH  34  40
ENDBRANCH  27  30
ENDBRANCH  23  27
ENDBRANCH  13  17
ENDBRANCH   1  11
BRANCH   3  46
HETATM   46  C   LIG     1     -12.600 -31.105  -1.877  1.00  0.00    -0.036 C 
HETATM   47  H   LIG     1     -12.946 -32.129  -2.069  1.00  0.00     0.037 H 
HETATM   48  H   LIG     1     -13.244 -30.447  -2.477  1.00  0.00     0.037 H 
BRANCH  46  49
HETATM   49  C   LIG     1     -12.803 -30.772  -0.392  1.00  0.00    -0.004 C 
HETATM   50  H   LIG     1     -11.907 -30.299   0.020  1.00  0.00     0.064 H 
HETATM   51  H   LIG     1     -13.014 -31.679   0.184  1.00  0.00     0.064 H 
BRANCH  49  52
HETATM   52  N   LIG     1     -13.891 -29.819  -0.178  1.00  0.00    -0.361 N 
HETATM   53  C   LIG     1     -13.700 -28.536   0.275  1.00  0.00     0.221 C 
HETATM   54  O   LIG     1     -12.586 -28.100   0.565  1.00  0.00    -0.273 OA
HETATM   55  H   LIG     1     -14.812 -30.099  -0.505  1.00  0.00     0.162 HD
BRANCH  53  56
HETATM   56  C   LIG     1     -14.999 -27.722   0.488  1.00  0.00     0.024 C 
HETATM   57  C   LIG     1     -14.738 -26.240   0.809  1.00  0.00    -0.051 C 
HETATM   58  C   LIG     1     -14.299 -25.409  -0.403  1.00  0.00    -0.040 C 
HETATM   59  H   LIG     1     -13.985 -26.144   1.602  1.00  0.00     0.034 H 
HETATM   60  H   LIG     1     -15.662 -25.804   1.211  1.00  0.00     0.034 H 
HETATM   61  C   LIG     1     -15.138 -25.622  -1.662  1.00  0.00     0.035 C 
HETATM   62  H   LIG     1     -13.253 -25.646  -0.629  1.00  0.00     0.036 H 
HETATM   63  H   LIG     1     -14.331 -24.347  -0.120  1.00  0.00     0.036 H 
HETATM   64  C   LIG     1     -15.487 -27.096  -1.920  1.00  0.00    -0.040 C 
HETATM   65  H   LIG     1     -14.583 -25.242  -2.526  1.00  0.00     0.082 H 
HETATM   66  C   LIG     1     -16.001 -27.805  -0.670  1.00  0.00    -0.051 C 
HETATM   67  H   LIG     1     -14.597 -27.620  -2.289  1.00  0.00     0.036 H 
HETATM   68  H   LIG     1     -16.253 -27.161  -2.699  1.00  0.00     0.036 H 
HETATM   69  H   LIG     1     -16.251 -28.840  -0.915  1.00  0.00     0.034 H 
HETATM   70  H   LIG     1     -16.943 -27.338  -0.352  1.00  0.00     0.034 H 
HETATM   71  H   LIG     1     -15.466 -28.167   1.376  1.00  0.00     0.054 H 
BRANCH  61  72
HETATM   72  O   LIG     1     -16.327 -24.843  -1.584  1.00  0.00    -0.396 OA
HETATM   73  H   LIG     1     -16.741 -24.801  -2.458  1.00  0.00     0.210 HD
ENDBRANCH  61  72
ENDBRANCH  53  56
ENDBRANCH  49  52
ENDBRANCH  46  49
ENDBRANCH   3  46
TORSDOF 11
ENDMDL
MODEL 5
REMARK VINA RESULT:      -7.7      3.585      7.237
REMARK  11 active torsions:
REMARK  status: ('A' for Active; 'I' for Inactive)
REMARK    1  A    between atoms: N_1  and  S_2 
REMARK    2  A    between atoms: S_2  and  C_5 
REMARK    3  A    between atoms: C_8  and  C_9 
REMARK    4  A    between atoms: C_9  and  C_10 
REMARK    5  A    between atoms: C_14  and  N_15 
REMARK       I    between atoms: N_15  and  C_16 
REMARK       I    between atoms: C_16  and  N_18 
REMARK    6  A    between atoms: N_18  and  C_19 
REMARK    7  A    between atoms: C_21  and  C_22 
REMARK    8  A    between atoms: C_22  and  C_23 
REMARK    9  A    between atoms: C_23  and  N_24 
REMARK       I    between atoms: N_24  and  C_25 
REMARK   10  A    between atoms: C_25  and  C_27 
REMARK   11  A    between atoms: C_30  and  O_31 
ROOT
HETATM    1  C   LIG     1      -9.757 -33.255  -2.425  1.00  0.00     0.051 C 
HETATM    2  C   LIG     1     -10.365 -32.160  -1.944  1.00  0.00    -0.063 C 
HETATM    3  C   LIG     1     -11.291 -31.305  -2.791  1.00  0.00     0.045 C 
HETATM    4  C   LIG     1     -10.974 -31.506  -4.278  1.00  0.00     0.250 C 
HETATM    5  O   LIG     1     -11.078 -30.567  -5.067  1.00  0.00    -0.271 OA
HETATM    6  N   LIG     1     -10.683 -32.779  -4.697  1.00  0.00    -0.224 NA
HETATM    7  C   LIG     1     -10.112 -33.567  -3.845  1.00  0.00     0.031 C 
HETATM    8  H   LIG     1     -10.215 -31.836  -0.919  1.00  0.00     0.081 H 
HETATM    9  H   LIG     1     -11.071 -30.253  -2.564  1.00  0.00     0.061 H 
HETATM   10  H   LIG     1      -9.912 -34.584  -4.202  1.00  0.00     0.118 H 
ENDROOT
BRANCH   1  11
HETATM   11  N   LIG     1      -8.934 -34.042  -1.644  1.00  0.00    -0.308 N 
HETATM   12  C   LIG     1      -7.565 -33.880  -1.493  1.00  0.00     0.325 C 
HETATM   13  N   LIG     1      -6.997 -34.807  -0.631  1.00  0.00    -0.309 N 
HETATM   14  O   LIG     1      -6.941 -32.991  -2.057  1.00  0.00    -0.247 OA
HETATM   15  H   LIG     1      -7.611 -35.238   0.047  1.00  0.00     0.170 HD
HETATM   16  H   LIG     1      -9.367 -34.805  -1.145  1.00  0.00     0.170 HD
BRANCH  13  17
HETATM   17  C   LIG     1      -5.601 -34.861  -0.361  1.00  0.00     0.036 A 
HETATM   18  C   LIG     1      -4.718 -35.575  -1.176  1.00  0.00    -0.057 A 
HETATM   19  C   LIG     1      -3.346 -35.483  -0.995  1.00  0.00    -0.080 A 
HETATM   20  H   LIG     1      -5.068 -36.201  -1.992  1.00  0.00     0.086 H 
HETATM   21  C   LIG     1      -2.832 -34.710   0.039  1.00  0.00    -0.076 A 
HETATM   22  H   LIG     1      -2.677 -35.994  -1.683  1.00  0.00     0.083 H 
HETATM   23  C   LIG     1      -3.684 -34.060   0.944  1.00  0.00    -0.052 A 
HETATM   24  H   LIG     1      -1.752 -34.625   0.116  1.00  0.00     0.084 H 
HETATM   25  C   LIG     1      -5.078 -34.146   0.730  1.00  0.00    -0.051 A 
HETATM   26  H   LIG     1      -5.749 -33.606   1.395  1.00  0.00     0.087 H 
BRANCH  23  27
HETATM   27  C   LIG     1      -3.135 -33.180   2.052  1.00  0.00    -0.017 C 
HETATM   28  H   LIG     1      -3.701 -33.382   2.971  1.00  0.00     0.047 H 
HETATM   29  H   LIG     1      -2.096 -33.463   2.264  1.00  0.00     0.047 H 
BRANCH  27  30
HETATM   30  C   LIG     1      -3.165 -31.685   1.763  1.00  0.00    -0.054 A 
HETATM   31  C   LIG     1      -2.882 -30.757   2.779  1.00  0.00    -0.075 A 
HETATM   32  C   LIG     1      -2.815 -29.387   2.507  1.00  0.00    -0.060 A 
HETATM   33  H   LIG     1      -2.700 -31.112   3.795  1.00  0.00     0.084 H 
HETATM   34  C   LIG     1      -3.021 -28.938   1.201  1.00  0.00     0.074 A 
HETATM   35  H   LIG     1      -2.603 -28.705   3.330  1.00  0.00     0.085 H 
HETATM   36  C   LIG     1      -3.329 -29.844   0.177  1.00  0.00    -0.060 A 
HETATM   37  C   LIG     1      -3.399 -31.213   0.462  1.00  0.00    -0.075 A 
HETATM   38  H   LIG     1      -3.512 -29.495  -0.837  1.00  0.00     0.085 H 
HETATM   39  H   LIG     1      -3.610 -31.912  -0.347  1.00  0.00     0.084 H 
BRANCH  34  40
HETATM   40  S   LIG     1      -2.913 -27.205   0.789  1.00  0.00     0.239 S 
HETATM   41  O   LIG     1      -2.512 -27.090  -0.608  1.00  0.00    -0.206 OA
HETATM   42  O   LIG     1      -2.182 -26.567   1.843  1.00  0.00    -0.206 OA
BRANCH  40  43
HETATM   43  N   LIG     1      -4.536 -26.721   0.931  1.00  0.00    -0.225 NA
HETATM   44  H   LIG     1      -5.143 -27.353   1.455  1.00  0.00     0.136 HD
HETATM   45  H   LIG     1      -4.681 -25.736   1.186  1.00  0.00     0.136 HD
ENDBRANCH  40  43
ENDBRANCH  34  40
ENDBRANCH  27  30
ENDBRANCH  23  27
ENDBRANCH  13  17
ENDBRANCH   1  11
BRANCH   3  46
HETATM   46  C   LIG     1     -12.766 -31.618  -2.481  1.00  0.00    -0.036 C 
HETATM   47  H   LIG     1     -12.908 -32.706  -2.513  1.00  0.00     0.037 H 
HETATM   48  H   LIG     1     -13.409 -31.203  -3.270  1.00  0.00     0.037 H 
BRANCH  46  49
HETATM   49  C   LIG     1     -13.248 -31.085  -1.123  1.00  0.00    -0.004 C 
HETATM   50  H   LIG     1     -12.686 -31.552  -0.309  1.00  0.00     0.064 H 
HETATM   51  H   LIG     1     -14.312 -31.297  -0.979  1.00  0.00     0.064 H 
BRANCH  49  52
HETATM   52  N   LIG     1     -13.034 -29.646  -0.981  1.00  0.00    -0.361 N 
HETATM   53  C   LIG     1     -13.947 -28.698  -1.377  1.00  0.00     0.221 C 
HETATM   54  O   LIG     1     -15.013 -28.997  -1.914  1.00  0.00    -0.273 OA
HETATM   55  H   LIG     1     -12.218 -29.357  -0.448  1.00  0.00     0.162 HD
BRANCH  53  56
HETATM   56  C   LIG     1     -13.486 -27.233  -1.188  1.00  0.00     0.024 C 
HETATM   57  C   LIG     1     -14.489 -26.208  -1.746  1.00  0.00    -0.051 C 
HETATM   58  C   LIG     1     -15.741 -26.028  -0.880  1.00  0.00    -0.040 C 
HETATM   59  H   LIG     1     -14.792 -26.479  -2.765  1.00  0.00     0.034 H 
HETATM   60  H   LIG     1     -13.982 -25.237  -1.828  1.00  0.00     0.034 H 
HETATM   61  C   LIG     1     -15.468 -25.863   0.615  1.00  0.00     0.035 C 
HETATM   62  H   LIG     1     -16.396 -26.895  -1.028  1.00  0.00     0.036 H 
HETATM   63  H   LIG     1     -16.289 -25.149  -1.248  1.00  0.00     0.036 H 
HETATM   64  C   LIG     1     -14.387 -26.819   1.145  1.00  0.00    -0.040 C 
HETATM   65  H   LIG     1     -16.394 -26.049   1.167  1.00  0.00     0.082 H 
HETATM   66  C   LIG     1     -13.146 -26.852   0.257  1.00  0.00    -0.051 C 
HETATM   67  H   LIG     1     -14.803 -27.831   1.218  1.00  0.00     0.036 H 
HETATM   68  H   LIG     1     -14.089 -26.512   2.153  1.00  0.00     0.036 H 
HETATM   69  H   LIG     1     -12.406 -27.530   0.691  1.00  0.00     0.034 H 
HETATM   70  H   LIG     1     -12.676 -25.859   0.257  1.00  0.00     0.034 H 
HETATM   71  H   LIG     1     -12.570 -27.149  -1.788  1.00  0.00     0.054 H 
BRANCH  61  72
HETATM   72  O   LIG     1     -15.108 -24.514   0.891  1.00  0.00    -0.396 OA
HETATM   73  H   LIG     1     -15.860 -23.937   0.699  1.00  0.00     0.210 HD
ENDBRANCH  61  72
ENDBRANCH  53  56
ENDBRANCH  49  52
ENDBRANCH  46  49
ENDBRANCH   3  46
TORSDOF 11
ENDMDL
MODEL 6
REMARK VINA RESULT:      -7.2      5.721     12.660
REMARK  11 active torsions:
REMARK  status: ('A' for Active; 'I' for Inactive)
REMARK    1  A    between atoms: N_1  and  S_2 
REMARK    2  A    between atoms: S_2  and  C_5 
REMARK    3  A    between atoms: C_8  and  C_9 
REMARK    4  A    between atoms: C_9  and  C_10 
REMARK    5  A    between atoms: C_14  and  N_15 
REMARK       I    between atoms: N_15  and  C_16 
REMARK       I    between atoms: C_16  and  N_18 
REMARK    6  A    between atoms: N_18  and  C_19 
REMARK    7  A    between atoms: C_21  and  C_22 
REMARK    8  A    between atoms: C_22  and  C_23 
REMARK    9  A    between atoms: C_23  and  N_24 
REMARK       I    between atoms: N_24  and  C_25 
REMARK   10  A    between atoms: C_25  and  C_27 
REMARK   11  A    between atoms: C_30  and  O_31 
ROOT
HETATM    1  C   LIG     1     -14.863 -25.594  -0.704  1.00  0.00     0.051 C 
HETATM    2  C   LIG     1     -14.433 -26.457   0.231  1.00  0.00    -0.063 C 
HETATM    3  C   LIG     1     -14.233 -27.933  -0.056  1.00  0.00     0.045 C 
HETATM    4  C   LIG     1     -15.088 -28.354  -1.258  1.00  0.00     0.250 C 
HETATM    5  O   LIG     1     -15.593 -29.475  -1.297  1.00  0.00    -0.271 OA
HETATM    6  N   LIG     1     -15.170 -27.482  -2.313  1.00  0.00    -0.224 NA
HETATM    7  C   LIG     1     -15.081 -26.219  -2.046  1.00  0.00     0.031 C 
HETATM    8  H   LIG     1     -14.211 -26.128   1.242  1.00  0.00     0.081 H 
HETATM    9  H   LIG     1     -14.613 -28.494   0.809  1.00  0.00     0.061 H 
HETATM   10  H   LIG     1     -15.128 -25.549  -2.911  1.00  0.00     0.118 H 
ENDROOT
BRANCH   1  11
HETATM   11  N   LIG     1     -15.021 -24.247  -0.444  1.00  0.00    -0.308 N 
HETATM   12  C   LIG     1     -14.127 -23.245  -0.790  1.00  0.00     0.325 C 
HETATM   13  N   LIG     1     -14.555 -21.979  -0.417  1.00  0.00    -0.309 N 
HETATM   14  O   LIG     1     -13.079 -23.473  -1.381  1.00  0.00    -0.247 OA
HETATM   15  H   LIG     1     -15.548 -21.852  -0.284  1.00  0.00     0.170 HD
HETATM   16  H   LIG     1     -15.859 -23.970   0.047  1.00  0.00     0.170 HD
BRANCH  13  17
HETATM   17  C   LIG     1     -13.779 -20.805  -0.629  1.00  0.00     0.036 A 
HETATM   18  C   LIG     1     -12.910 -20.309   0.347  1.00  0.00    -0.057 A 
HETATM   19  C   LIG     1     -12.042 -19.263   0.065  1.00  0.00    -0.080 A 
HETATM   20  H   LIG     1     -12.862 -20.735   1.344  1.00  0.00     0.086 H 
HETATM   21  C   LIG     1     -12.061 -18.663  -1.189  1.00  0.00    -0.076 A 
HETATM   22  H   LIG     1     -11.329 -18.938   0.819  1.00  0.00     0.083 H 
HETATM   23  C   LIG     1     -12.988 -19.062  -2.163  1.00  0.00    -0.052 A 
HETATM   24  H   LIG     1     -11.332 -17.882  -1.384  1.00  0.00     0.084 H 
HETATM   25  C   LIG     1     -13.848 -20.143  -1.867  1.00  0.00    -0.051 A 
HETATM   26  H   LIG     1     -14.537 -20.494  -2.631  1.00  0.00     0.087 H 
BRANCH  23  27
HETATM   27  C   LIG     1     -12.991 -18.442  -3.549  1.00  0.00    -0.017 C 
HETATM   28  H   LIG     1     -12.457 -17.484  -3.503  1.00  0.00     0.047 H 
HETATM   29  H   LIG     1     -12.419 -19.079  -4.236  1.00  0.00     0.047 H 
BRANCH  27  30
HETATM   30  C   LIG     1     -14.371 -18.220  -4.152  1.00  0.00    -0.054 A 
HETATM   31  C   LIG     1     -14.902 -19.138  -5.073  1.00  0.00    -0.075 A 
HETATM   32  C   LIG     1     -16.204 -18.997  -5.566  1.00  0.00    -0.060 A 
HETATM   33  H   LIG     1     -14.293 -19.983  -5.402  1.00  0.00     0.084 H 
HETATM   34  C   LIG     1     -16.989 -17.931  -5.124  1.00  0.00     0.074 A 
HETATM   35  H   LIG     1     -16.567 -19.729  -6.287  1.00  0.00     0.085 H 
HETATM   36  C   LIG     1     -16.471 -16.990  -4.224  1.00  0.00    -0.060 A 
HETATM   37  C   LIG     1     -15.166 -17.138  -3.742  1.00  0.00    -0.075 A 
HETATM   38  H   LIG     1     -17.074 -16.146  -3.895  1.00  0.00     0.085 H 
HETATM   39  H   LIG     1     -14.782 -16.417  -3.021  1.00  0.00     0.084 H 
BRANCH  34  40
HETATM   40  S   LIG     1     -18.668 -17.721  -5.690  1.00  0.00     0.239 S 
HETATM   41  O   LIG     1     -18.632 -17.176  -7.043  1.00  0.00    -0.206 OA
HETATM   42  O   LIG     1     -19.392 -17.079  -4.633  1.00  0.00    -0.206 OA
BRANCH  40  43
HETATM   43  N   LIG     1     -19.205 -19.332  -5.766  1.00  0.00    -0.225 NA
HETATM   44  H   LIG     1     -20.214 -19.467  -5.682  1.00  0.00     0.136 HD
HETATM   45  H   LIG     1     -18.794 -19.898  -6.519  1.00  0.00     0.136 HD
ENDBRANCH  40  43
ENDBRANCH  34  40
ENDBRANCH  27  30
ENDBRANCH  23  27
ENDBRANCH  13  17
ENDBRANCH   1  11
BRANCH   3  46
HETATM   46  C   LIG     1     -12.744 -28.254  -0.284  1.00  0.00    -0.036 C 
HETATM   47  H   LIG     1     -12.141 -27.567   0.324  1.00  0.00     0.037 H 
HETATM   48  H   LIG     1     -12.474 -28.052  -1.330  1.00  0.00     0.037 H 
BRANCH  46  49
HETATM   49  C   LIG     1     -12.356 -29.701   0.055  1.00  0.00    -0.004 C 
HETATM   50  H   LIG     1     -13.246 -30.336   0.092  1.00  0.00     0.064 H 
HETATM   51  H   LIG     1     -11.852 -29.750   1.025  1.00  0.00     0.064 H 
BRANCH  49  52
HETATM   52  N   LIG     1     -11.484 -30.295  -0.956  1.00  0.00    -0.361 N 
HETATM   53  C   LIG     1     -11.911 -31.213  -1.885  1.00  0.00     0.221 C 
HETATM   54  O   LIG     1     -13.070 -31.628  -1.915  1.00  0.00    -0.273 OA
HETATM   55  H   LIG     1     -10.549 -29.905  -1.037  1.00  0.00     0.162 HD
BRANCH  53  56
HETATM   56  C   LIG     1     -10.804 -31.756  -2.820  1.00  0.00     0.024 C 
HETATM   57  C   LIG     1     -11.349 -32.642  -3.953  1.00  0.00    -0.051 C 
HETATM   58  C   LIG     1     -12.046 -31.859  -5.073  1.00  0.00    -0.040 C 
HETATM   59  H   LIG     1     -12.042 -33.394  -3.555  1.00  0.00     0.034 H 
HETATM   60  H   LIG     1     -10.511 -33.201  -4.391  1.00  0.00     0.034 H 
HETATM   61  C   LIG     1     -11.279 -30.635  -5.571  1.00  0.00     0.035 C 
HETATM   62  H   LIG     1     -13.032 -31.541  -4.715  1.00  0.00     0.036 H 
HETATM   63  H   LIG     1     -12.219 -32.547  -5.914  1.00  0.00     0.036 H 
HETATM   64  C   LIG     1     -10.645 -29.812  -4.439  1.00  0.00    -0.040 C 
HETATM   65  H   LIG     1     -11.967 -29.988  -6.125  1.00  0.00     0.082 H 
HETATM   66  C   LIG     1      -9.898 -30.680  -3.430  1.00  0.00    -0.051 C 
HETATM   67  H   LIG     1     -11.429 -29.249  -3.917  1.00  0.00     0.036 H 
HETATM   68  H   LIG     1      -9.944 -29.085  -4.862  1.00  0.00     0.036 H 
HETATM   69  H   LIG     1      -9.452 -30.042  -2.661  1.00  0.00     0.034 H 
HETATM   70  H   LIG     1      -9.056 -31.173  -3.932  1.00  0.00     0.034 H 
HETATM   71  H   LIG     1     -10.186 -32.398  -2.177  1.00  0.00     0.054 H 
BRANCH  61  72
HETATM   72  O   LIG     1     -10.282 -31.040  -6.502  1.00  0.00    -0.396 OA
HETATM   73  H   LIG     1      -9.553 -30.403  -6.487  1.00  0.00     0.210 HD
ENDBRANCH  61  72
ENDBRANCH  53  56
ENDBRANCH  49  52
ENDBRANCH  46  49
ENDBRANCH   3  46
TORSDOF 11
ENDMDL
MODEL 7
REMARK VINA RESULT:      -6.3      4.632      6.403
REMARK  11 active torsions:
REMARK  status: ('A' for Active; 'I' for Inactive)
REMARK    1  A    between atoms: N_1  and  S_2 
REMARK    2  A    between atoms: S_2  and  C_5 
REMARK    3  A    between atoms: C_8  and  C_9 
REMARK    4  A    between atoms: C_9  and  C_10 
REMARK    5  A    between atoms: C_14  and  N_15 
REMARK       I    between atoms: N_15  and  C_16 
REMARK       I    between atoms: C_16  and  N_18 
REMARK    6  A    between atoms: N_18  and  C_19 
REMARK    7  A    between atoms: C_21  and  C_22 
REMARK    8  A    between atoms: C_22  and  C_23 
REMARK    9  A    between atoms: C_23  and  N_24 
REMARK       I    between atoms: N_24  and  C_25 
REMARK   10  A    between atoms: C_25  and  C_27 
REMARK   11  A    between atoms: C_30  and  O_31 
ROOT
HETATM    1  C   LIG     1     -13.358 -27.324  -2.851  1.00  0.00     0.051 C 
HETATM    2  C   LIG     1     -13.584 -26.373  -1.931  1.00  0.00    -0.063 C 
HETATM    3  C   LIG     1     -13.797 -24.917  -2.301  1.00  0.00     0.045 C 
HETATM    4  C   LIG     1     -13.171 -24.628  -3.671  1.00  0.00     0.250 C 
HETATM    5  O   LIG     1     -12.654 -23.535  -3.899  1.00  0.00    -0.271 OA
HETATM    6  N   LIG     1     -13.310 -25.584  -4.645  1.00  0.00    -0.224 NA
HETATM    7  C   LIG     1     -13.380 -26.817  -4.259  1.00  0.00     0.031 C 
HETATM    8  H   LIG     1     -13.621 -26.611  -0.872  1.00  0.00     0.081 H 
HETATM    9  H   LIG     1     -13.248 -24.306  -1.572  1.00  0.00     0.061 H 
HETATM   10  H   LIG     1     -13.512 -27.555  -5.058  1.00  0.00     0.118 H 
ENDROOT
BRANCH   1  11
HETATM   11  N   LIG     1     -13.188 -28.652  -2.511  1.00  0.00    -0.308 N 
HETATM   12  C   LIG     1     -12.122 -29.454  -2.890  1.00  0.00     0.325 C 
HETATM   13  N   LIG     1     -12.204 -30.744  -2.387  1.00  0.00    -0.309 N 
HETATM   14  O   LIG     1     -11.201 -29.042  -3.583  1.00  0.00    -0.247 OA
HETATM   15  H   LIG     1     -12.768 -30.878  -1.559  1.00  0.00     0.170 HD
HETATM   16  H   LIG     1     -13.906 -29.075  -1.942  1.00  0.00     0.170 HD
BRANCH  13  17
HETATM   17  C   LIG     1     -11.246 -31.754  -2.683  1.00  0.00     0.036 A 
HETATM   18  C   LIG     1     -10.456 -32.337  -1.688  1.00  0.00    -0.057 A 
HETATM   19  C   LIG     1      -9.648 -33.430  -1.967  1.00  0.00    -0.080 A 
HETATM   20  H   LIG     1     -10.464 -31.977  -0.663  1.00  0.00     0.086 H 
HETATM   21  C   LIG     1      -9.581 -33.932  -3.261  1.00  0.00    -0.076 A 
HETATM   22  H   LIG     1      -9.094 -33.908  -1.163  1.00  0.00     0.083 H 
HETATM   23  C   LIG     1     -10.278 -33.314  -4.309  1.00  0.00    -0.052 A 
HETATM   24  H   LIG     1      -8.975 -34.819  -3.426  1.00  0.00     0.084 H 
HETATM   25  C   LIG     1     -11.113 -32.217  -4.003  1.00  0.00    -0.051 A 
HETATM   26  H   LIG     1     -11.697 -31.759  -4.799  1.00  0.00     0.087 H 
BRANCH  23  27
HETATM   27  C   LIG     1     -10.244 -33.878  -5.719  1.00  0.00    -0.017 C 
HETATM   28  H   LIG     1      -9.502 -34.686  -5.753  1.00  0.00     0.047 H 
HETATM   29  H   LIG     1     -11.212 -34.341  -5.951  1.00  0.00     0.047 H 
BRANCH  27  30
HETATM   30  C   LIG     1      -9.935 -32.864  -6.811  1.00  0.00    -0.054 A 
HETATM   31  C   LIG     1     -10.868 -32.604  -7.828  1.00  0.00    -0.075 A 
HETATM   32  C   LIG     1     -10.636 -31.610  -8.785  1.00  0.00    -0.060 A 
HETATM   33  H   LIG     1     -11.795 -33.179  -7.866  1.00  0.00     0.084 H 
HETATM   34  C   LIG     1      -9.462 -30.858  -8.718  1.00  0.00     0.074 A 
HETATM   35  H   LIG     1     -11.385 -31.453  -9.560  1.00  0.00     0.085 H 
HETATM   36  C   LIG     1      -8.505 -31.117  -7.727  1.00  0.00    -0.060 A 
HETATM   37  C   LIG     1      -8.746 -32.118  -6.778  1.00  0.00    -0.075 A 
HETATM   38  H   LIG     1      -7.580 -30.548  -7.686  1.00  0.00     0.085 H 
HETATM   39  H   LIG     1      -8.009 -32.292  -5.994  1.00  0.00     0.084 H 
BRANCH  34  40
HETATM   40  S   LIG     1      -9.130 -29.554  -9.890  1.00  0.00     0.239 S 
HETATM   41  O   LIG     1      -9.752 -29.909 -11.160  1.00  0.00    -0.206 OA
HETATM   42  O   LIG     1      -7.734 -29.244  -9.789  1.00  0.00    -0.206 OA
BRANCH  40  43
HETATM   43  N   LIG     1      -9.988 -28.257  -9.207  1.00  0.00    -0.225 NA
HETATM   44  H   LIG     1     -10.999 -28.266  -9.357  1.00  0.00     0.136 HD
HETATM   45  H   LIG     1      -9.737 -28.024  -8.238  1.00  0.00     0.136 HD
ENDBRANCH  40  43
ENDBRANCH  34  40
ENDBRANCH  27  30
ENDBRANCH  23  27
ENDBRANCH  13  17
ENDBRANCH   1  11
BRANCH   3  46
HETATM   46  C   LIG     1     -15.293 -24.555  -2.277  1.00  0.00    -0.036 C 
HETATM   47  H   LIG     1     -15.877 -25.468  -2.453  1.00  0.00     0.037 H 
HETATM   48  H   LIG     1     -15.527 -23.878  -3.110  1.00  0.00     0.037 H 
BRANCH  46  49
HETATM   49  C   LIG     1     -15.759 -23.902  -0.967  1.00  0.00    -0.004 C 
HETATM   50  H   LIG     1     -15.633 -24.595  -0.130  1.00  0.00     0.064 H 
HETATM   51  H   LIG     1     -16.814 -23.618  -1.029  1.00  0.00     0.064 H 
BRANCH  49  52
HETATM   52  N   LIG     1     -14.975 -22.717  -0.625  1.00  0.00    -0.361 N 
HETATM   53  C   LIG     1     -15.226 -21.466  -1.135  1.00  0.00     0.221 C 
HETATM   54  O   LIG     1     -16.124 -21.256  -1.950  1.00  0.00    -0.273 OA
HETATM   55  H   LIG     1     -14.294 -22.822   0.123  1.00  0.00     0.162 HD
BRANCH  53  56
HETATM   56  C   LIG     1     -14.232 -20.369  -0.684  1.00  0.00     0.024 C 
HETATM   57  C   LIG     1     -12.988 -20.934   0.023  1.00  0.00    -0.051 C 
HETATM   58  C   LIG     1     -11.981 -21.594  -0.927  1.00  0.00    -0.040 C 
HETATM   59  H   LIG     1     -13.278 -21.655   0.797  1.00  0.00     0.034 H 
HETATM   60  H   LIG     1     -12.482 -20.111   0.546  1.00  0.00     0.034 H 
HETATM   61  C   LIG     1     -11.655 -20.782  -2.179  1.00  0.00     0.035 C 
HETATM   62  H   LIG     1     -12.374 -22.572  -1.228  1.00  0.00     0.036 H 
HETATM   63  H   LIG     1     -11.054 -21.783  -0.365  1.00  0.00     0.036 H 
HETATM   64  C   LIG     1     -12.890 -20.130  -2.821  1.00  0.00    -0.040 C 
HETATM   65  H   LIG     1     -11.190 -21.442  -2.918  1.00  0.00     0.082 H 
HETATM   66  C   LIG     1     -13.777 -19.422  -1.800  1.00  0.00    -0.051 C 
HETATM   67  H   LIG     1     -13.479 -20.899  -3.335  1.00  0.00     0.036 H 
HETATM   68  H   LIG     1     -12.571 -19.402  -3.573  1.00  0.00     0.036 H 
HETATM   69  H   LIG     1     -14.626 -18.962  -2.313  1.00  0.00     0.034 H 
HETATM   70  H   LIG     1     -13.216 -18.593  -1.350  1.00  0.00     0.034 H 
HETATM   71  H   LIG     1     -14.785 -19.779   0.059  1.00  0.00     0.054 H 
BRANCH  61  72
HETATM   72  O   LIG     1     -10.682 -19.790  -1.870  1.00  0.00    -0.396 OA
HETATM   73  H   LIG     1     -11.011 -19.234  -1.150  1.00  0.00     0.210 HD
ENDBRANCH  61  72
ENDBRANCH  53  56
ENDBRANCH  49  52
ENDBRANCH  46  49
ENDBRANCH   3  46
TORSDOF 11
ENDMDL
MODEL 8
REMARK VINA RESULT:      -6.1      3.076      4.528
REMARK  11 active torsions:
REMARK  status: ('A' for Active; 'I' for Inactive)
REMARK    1  A    between atoms: N_1  and  S_2 
REMARK    2  A    between atoms: S_2  and  C_5 
REMARK    3  A    between atoms: C_8  and  C_9 
REMARK    4  A    between atoms: C_9  and  C_10 
REMARK    5  A    between atoms: C_14  and  N_15 
REMARK       I    between atoms: N_15  and  C_16 
REMARK       I    between atoms: C_16  and  N_18 
REMARK    6  A    between atoms: N_18  and  C_19 
REMARK    7  A    between atoms: C_21  and  C_22 
REMARK    8  A    between atoms: C_22  and  C_23 
REMARK    9  A    between atoms: C_23  and  N_24 
REMARK       I    between atoms: N_24  and  C_25 
REMARK   10  A    between atoms: C_25  and  C_27 
REMARK   11  A    between atoms: C_30  and  O_31 
ROOT
HETATM    1  C   LIG     1     -11.420 -26.855  -4.291  1.00  0.00     0.051 C 
HETATM    2  C   LIG     1     -10.455 -25.938  -4.467  1.00  0.00    -0.063 C 
HETATM    3  C   LIG     1     -10.680 -24.664  -5.261  1.00  0.00     0.045 C 
HETATM    4  C   LIG     1     -11.847 -24.855  -6.238  1.00  0.00     0.250 C 
HETATM    5  O   LIG     1     -11.828 -24.309  -7.341  1.00  0.00    -0.271 OA
HETATM    6  N   LIG     1     -12.938 -25.556  -5.792  1.00  0.00    -0.224 NA
HETATM    7  C   LIG     1     -12.729 -26.480  -4.912  1.00  0.00     0.031 C 
HETATM    8  H   LIG     1      -9.464 -26.073  -4.045  1.00  0.00     0.081 H 
HETATM    9  H   LIG     1      -9.785 -24.493  -5.873  1.00  0.00     0.061 H 
HETATM   10  H   LIG     1     -13.622 -27.008  -4.559  1.00  0.00     0.118 H 
ENDROOT
BRANCH   1  11
HETATM   11  N   LIG     1     -11.217 -28.002  -3.549  1.00  0.00    -0.308 N 
HETATM   12  C   LIG     1     -10.508 -29.119  -3.963  1.00  0.00     0.325 C 
HETATM   13  N   LIG     1     -10.452 -30.117  -3.001  1.00  0.00    -0.309 N 
HETATM   14  O   LIG     1      -9.977 -29.192  -5.063  1.00  0.00    -0.247 OA
HETATM   15  H   LIG     1     -10.583 -29.835  -2.040  1.00  0.00     0.170 HD
HETATM   16  H   LIG     1     -11.626 -28.029  -2.626  1.00  0.00     0.170 HD
BRANCH  13  17
HETATM   17  C   LIG     1      -9.817 -31.372  -3.222  1.00  0.00     0.036 A 
HETATM   18  C   LIG     1     -10.540 -32.511  -3.587  1.00  0.00    -0.057 A 
HETATM   19  C   LIG     1      -9.891 -33.680  -3.958  1.00  0.00    -0.080 A 
HETATM   20  H   LIG     1     -11.626 -32.516  -3.621  1.00  0.00     0.086 H 
HETATM   21  C   LIG     1      -8.503 -33.746  -3.923  1.00  0.00    -0.076 A 
HETATM   22  H   LIG     1     -10.473 -34.532  -4.302  1.00  0.00     0.083 H 
HETATM   23  C   LIG     1      -7.743 -32.660  -3.465  1.00  0.00    -0.052 A 
HETATM   24  H   LIG     1      -8.034 -34.662  -4.268  1.00  0.00     0.084 H 
HETATM   25  C   LIG     1      -8.419 -31.470  -3.114  1.00  0.00    -0.051 A 
HETATM   26  H   LIG     1      -7.838 -30.604  -2.803  1.00  0.00     0.087 H 
BRANCH  23  27
HETATM   27  C   LIG     1      -6.226 -32.705  -3.462  1.00  0.00    -0.017 C 
HETATM   28  H   LIG     1      -5.900 -33.526  -4.113  1.00  0.00     0.047 H 
HETATM   29  H   LIG     1      -5.831 -31.783  -3.910  1.00  0.00     0.047 H 
BRANCH  27  30
HETATM   30  C   LIG     1      -5.589 -32.869  -2.089  1.00  0.00    -0.054 A 
HETATM   31  C   LIG     1      -4.821 -31.835  -1.531  1.00  0.00    -0.075 A 
HETATM   32  C   LIG     1      -4.307 -31.935  -0.234  1.00  0.00    -0.060 A 
HETATM   33  H   LIG     1      -4.631 -30.931  -2.114  1.00  0.00     0.084 H 
HETATM   34  C   LIG     1      -4.573 -33.079   0.520  1.00  0.00     0.074 A 
HETATM   35  H   LIG     1      -3.708 -31.110   0.152  1.00  0.00     0.085 H 
HETATM   36  C   LIG     1      -5.316 -34.135  -0.026  1.00  0.00    -0.060 A 
HETATM   37  C   LIG     1      -5.821 -34.025  -1.327  1.00  0.00    -0.075 A 
HETATM   38  H   LIG     1      -5.506 -35.037   0.551  1.00  0.00     0.085 H 
HETATM   39  H   LIG     1      -6.422 -34.839  -1.732  1.00  0.00     0.084 H 
BRANCH  34  40
HETATM   40  S   LIG     1      -3.973 -33.247   2.192  1.00  0.00     0.239 S 
HETATM   41  O   LIG     1      -4.998 -33.921   2.982  1.00  0.00    -0.206 OA
HETATM   42  O   LIG     1      -3.434 -31.976   2.575  1.00  0.00    -0.206 OA
BRANCH  40  43
HETATM   43  N   LIG     1      -2.665 -34.310   1.978  1.00  0.00    -0.225 NA
HETATM   44  H   LIG     1      -1.840 -33.913   1.524  1.00  0.00     0.136 HD
HETATM   45  H   LIG     1      -2.424 -34.884   2.796  1.00  0.00     0.136 HD
ENDBRANCH  40  43
ENDBRANCH  34  40
ENDBRANCH  27  30
ENDBRANCH  23  27
ENDBRANCH  13  17
ENDBRANCH   1  11
BRANCH   3  46
HETATM   46  C   LIG     1     -10.920 -23.465  -4.324  1.00  0.00    -0.036 C 
HETATM   47  H   LIG     1     -12.002 -23.308  -4.227  1.00  0.00     0.037 H 
HETATM   48  H   LIG     1     -10.517 -22.549  -4.779  1.00  0.00     0.037 H 
BRANCH  46  49
HETATM   49  C   LIG     1     -10.306 -23.631  -2.926  1.00  0.00    -0.004 C 
HETATM   50  H   LIG     1      -9.470 -22.938  -2.792  1.00  0.00     0.064 H 
HETATM   51  H   LIG     1      -9.938 -24.652  -2.783  1.00  0.00     0.064 H 
BRANCH  49  52
HETATM   52  N   LIG     1     -11.255 -23.321  -1.860  1.00  0.00    -0.361 N 
HETATM   53  C   LIG     1     -11.921 -24.278  -1.132  1.00  0.00     0.221 C 
HETATM   54  O   LIG     1     -11.786 -25.482  -1.350  1.00  0.00    -0.273 OA
HETATM   55  H   LIG     1     -11.318 -22.348  -1.574  1.00  0.00     0.162 HD
BRANCH  53  56
HETATM   56  C   LIG     1     -12.926 -23.723  -0.094  1.00  0.00     0.024 C 
HETATM   57  C   LIG     1     -13.519 -22.361  -0.494  1.00  0.00    -0.051 C 
HETATM   58  C   LIG     1     -14.568 -22.444  -1.610  1.00  0.00    -0.040 C 
HETATM   59  H   LIG     1     -12.724 -21.669  -0.798  1.00  0.00     0.034 H 
HETATM   60  H   LIG     1     -13.990 -21.915   0.391  1.00  0.00     0.034 H 
HETATM   61  C   LIG     1     -15.620 -23.535  -1.420  1.00  0.00     0.035 C 
HETATM   62  H   LIG     1     -14.052 -22.609  -2.563  1.00  0.00     0.036 H 
HETATM   63  H   LIG     1     -15.067 -21.467  -1.684  1.00  0.00     0.036 H 
HETATM   64  C   LIG     1     -15.036 -24.865  -0.917  1.00  0.00    -0.040 C 
HETATM   65  H   LIG     1     -16.118 -23.718  -2.377  1.00  0.00     0.082 H 
HETATM   66  C   LIG     1     -14.075 -24.677   0.255  1.00  0.00    -0.051 C 
HETATM   67  H   LIG     1     -14.505 -25.361  -1.738  1.00  0.00     0.036 H 
HETATM   68  H   LIG     1     -15.848 -25.527  -0.601  1.00  0.00     0.036 H 
HETATM   69  H   LIG     1     -13.707 -25.652   0.584  1.00  0.00     0.034 H 
HETATM   70  H   LIG     1     -14.626 -24.264   1.110  1.00  0.00     0.034 H 
HETATM   71  H   LIG     1     -12.329 -23.562   0.814  1.00  0.00     0.054 H 
BRANCH  61  72
HETATM   72  O   LIG     1     -16.632 -23.077  -0.530  1.00  0.00    -0.396 OA
HETATM   73  H   LIG     1     -16.276 -23.040   0.368  1.00  0.00     0.210 HD
ENDBRANCH  61  72
ENDBRANCH  53  56
ENDBRANCH  49  52
ENDBRANCH  46  49
ENDBRANCH   3  46
TORSDOF 11
ENDMDL
MODEL 9
REMARK VINA RESULT:      -5.9      4.395      6.760
REMARK  11 active torsions:
REMARK  status: ('A' for Active; 'I' for Inactive)
REMARK    1  A    between atoms: N_1  and  S_2 
REMARK    2  A    between atoms: S_2  and  C_5 
REMARK    3  A    between atoms: C_8  and  C_9 
REMARK    4  A    between atoms: C_9  and  C_10 
REMARK    5  A    between atoms: C_14  and  N_15 
REMARK       I    between atoms: N_15  and  C_16 
REMARK       I    between atoms: C_16  and  N_18 
REMARK    6  A    between atoms: N_18  and  C_19 
REMARK    7  A    between atoms: C_21  and  C_22 
REMARK    8  A    between atoms: C_22  and  C_23 
REMARK    9  A    between atoms: C_23  and  N_24 
REMARK       I    between atoms: N_24  and  C_25 
REMARK   10  A    between atoms: C_25  and  C_27 
REMARK   11  A    between atoms: C_30  and  O_31 
ROOT
HETATM    1  C   LIG     1      -9.931 -29.688  -5.435  1.00  0.00     0.051 C 
HETATM    2  C   LIG     1     -10.515 -29.263  -4.303  1.00  0.00    -0.063 C 
HETATM    3  C   LIG     1     -10.991 -27.833  -4.122  1.00  0.00     0.045 C 
HETATM    4  C   LIG     1     -10.232 -26.903  -5.077  1.00  0.00     0.250 C 
HETATM    5  O   LIG     1      -9.948 -25.757  -4.731  1.00  0.00    -0.271 OA
HETATM    6  N   LIG     1      -9.988 -27.361  -6.346  1.00  0.00    -0.224 NA
HETATM    7  C   LIG     1      -9.837 -28.637  -6.497  1.00  0.00     0.031 C 
HETATM    8  H   LIG     1     -10.669 -29.932  -3.463  1.00  0.00     0.081 H 
HETATM    9  H   LIG     1     -10.722 -27.521  -3.104  1.00  0.00     0.061 H 
HETATM   10  H   LIG     1      -9.665 -28.975  -7.525  1.00  0.00     0.118 H 
ENDROOT
BRANCH   1  11
HETATM   11  N   LIG     1      -9.521 -30.996  -5.604  1.00  0.00    -0.308 N 
HETATM   12  C   LIG     1      -8.280 -31.506  -5.253  1.00  0.00     0.325 C 
HETATM   13  N   LIG     1      -8.151 -32.861  -5.522  1.00  0.00    -0.309 N 
HETATM   14  O   LIG     1      -7.406 -30.819  -4.741  1.00  0.00    -0.247 OA
HETATM   15  H   LIG     1      -9.004 -33.399  -5.587  1.00  0.00     0.170 HD
HETATM   16  H   LIG     1     -10.180 -31.633  -6.025  1.00  0.00     0.170 HD
BRANCH  13  17
HETATM   17  C   LIG     1      -6.949 -33.587  -5.288  1.00  0.00     0.036 A 
HETATM   18  C   LIG     1      -5.905 -33.605  -6.216  1.00  0.00    -0.057 A 
HETATM   19  C   LIG     1      -4.681 -34.179  -5.903  1.00  0.00    -0.080 A 
HETATM   20  H   LIG     1      -6.001 -33.151  -7.198  1.00  0.00     0.086 H 
HETATM   21  C   LIG     1      -4.496 -34.790  -4.668  1.00  0.00    -0.076 A 
HETATM   22  H   LIG     1      -3.862 -34.122  -6.616  1.00  0.00     0.083 H 
HETATM   23  C   LIG     1      -5.550 -34.885  -3.747  1.00  0.00    -0.052 A 
HETATM   24  H   LIG     1      -3.508 -35.183  -4.444  1.00  0.00     0.084 H 
HETATM   25  C   LIG     1      -6.781 -34.274  -4.074  1.00  0.00    -0.051 A 
HETATM   26  H   LIG     1      -7.591 -34.298  -3.348  1.00  0.00     0.087 H 
BRANCH  23  27
HETATM   27  C   LIG     1      -5.348 -35.513  -2.380  1.00  0.00    -0.017 C 
HETATM   28  H   LIG     1      -4.436 -35.094  -1.935  1.00  0.00     0.047 H 
HETATM   29  H   LIG     1      -6.174 -35.221  -1.718  1.00  0.00     0.047 H 
BRANCH  27  30
HETATM   30  C   LIG     1      -5.257 -37.032  -2.376  1.00  0.00    -0.054 A 
HETATM   31  C   LIG     1      -4.690 -37.709  -1.284  1.00  0.00    -0.075 A 
HETATM   32  C   LIG     1      -4.682 -39.107  -1.225  1.00  0.00    -0.060 A 
HETATM   33  H   LIG     1      -4.258 -37.136  -0.461  1.00  0.00     0.084 H 
HETATM   34  C   LIG     1      -5.259 -39.838  -2.265  1.00  0.00     0.074 A 
HETATM   35  H   LIG     1      -4.221 -39.587  -0.362  1.00  0.00     0.085 H 
HETATM   36  C   LIG     1      -5.808 -39.183  -3.376  1.00  0.00    -0.060 A 
HETATM   37  C   LIG     1      -5.805 -37.785  -3.427  1.00  0.00    -0.075 A 
HETATM   38  H   LIG     1      -6.238 -39.751  -4.198  1.00  0.00     0.085 H 
HETATM   39  H   LIG     1      -6.260 -37.285  -4.281  1.00  0.00     0.084 H 
BRANCH  34  40
HETATM   40  S   LIG     1      -5.310 -41.621  -2.227  1.00  0.00     0.239 S 
HETATM   41  O   LIG     1      -3.949 -42.116  -2.049  1.00  0.00    -0.206 OA
HETATM   42  O   LIG     1      -6.133 -42.042  -3.322  1.00  0.00    -0.206 OA
BRANCH  40  43
HETATM   43  N   LIG     1      -6.183 -41.905  -0.797  1.00  0.00    -0.225 NA
HETATM   44  H   LIG     1      -6.979 -42.540  -0.882  1.00  0.00     0.136 HD
HETATM   45  H   LIG     1      -5.614 -42.098   0.036  1.00  0.00     0.136 HD
ENDBRANCH  40  43
ENDBRANCH  34  40
ENDBRANCH  27  30
ENDBRANCH  23  27
ENDBRANCH  13  17
ENDBRANCH   1  11
BRANCH   3  46
HETATM   46  C   LIG     1     -12.514 -27.729  -4.324  1.00  0.00    -0.036 C 
HETATM   47  H   LIG     1     -12.745 -27.976  -5.369  1.00  0.00     0.037 H 
HETATM   48  H   LIG     1     -12.840 -26.690  -4.178  1.00  0.00     0.037 H 
BRANCH  46  49
HETATM   49  C   LIG     1     -13.332 -28.637  -3.396  1.00  0.00    -0.004 C 
HETATM   50  H   LIG     1     -12.702 -29.030  -2.592  1.00  0.00     0.064 H 
HETATM   51  H   LIG     1     -13.753 -29.482  -3.952  1.00  0.00     0.064 H 
BRANCH  49  52
HETATM   52  N   LIG     1     -14.423 -27.923  -2.736  1.00  0.00    -0.361 N 
HETATM   53  C   LIG     1     -14.465 -27.682  -1.384  1.00  0.00     0.221 C 
HETATM   54  O   LIG     1     -13.590 -28.081  -0.616  1.00  0.00    -0.273 OA
HETATM   55  H   LIG     1     -15.111 -27.483  -3.341  1.00  0.00     0.162 HD
BRANCH  53  56
HETATM   56  C   LIG     1     -15.744 -26.962  -0.892  1.00  0.00     0.024 C 
HETATM   57  C   LIG     1     -15.547 -26.225   0.444  1.00  0.00    -0.051 C 
HETATM   58  C   LIG     1     -14.744 -24.924   0.324  1.00  0.00    -0.040 C 
HETATM   59  H   LIG     1     -15.063 -26.880   1.179  1.00  0.00     0.034 H 
HETATM   60  H   LIG     1     -16.536 -25.983   0.856  1.00  0.00     0.034 H 
HETATM   61  C   LIG     1     -15.176 -24.008  -0.820  1.00  0.00     0.035 C 
HETATM   62  H   LIG     1     -13.685 -25.179   0.196  1.00  0.00     0.036 H 
HETATM   63  H   LIG     1     -14.828 -24.381   1.276  1.00  0.00     0.036 H 
HETATM   64  C   LIG     1     -15.475 -24.763  -2.125  1.00  0.00    -0.040 C 
HETATM   65  H   LIG     1     -14.378 -23.285  -1.015  1.00  0.00     0.082 H 
HETATM   66  C   LIG     1     -16.358 -25.988  -1.905  1.00  0.00    -0.051 C 
HETATM   67  H   LIG     1     -14.531 -25.080  -2.585  1.00  0.00     0.036 H 
HETATM   68  H   LIG     1     -15.976 -24.092  -2.830  1.00  0.00     0.036 H 
HETATM   69  H   LIG     1     -16.554 -26.473  -2.865  1.00  0.00     0.034 H 
HETATM   70  H   LIG     1     -17.338 -25.663  -1.530  1.00  0.00     0.034 H 
HETATM   71  H   LIG     1     -16.468 -27.769  -0.712  1.00  0.00     0.054 H 
BRANCH  61  72
HETATM   72  O   LIG     1     -16.310 -23.247  -0.423  1.00  0.00    -0.396 OA
HETATM   73  H   LIG     1     -16.949 -23.828   0.013  1.00  0.00     0.210 HD
ENDBRANCH  61  72
ENDBRANCH  53  56
ENDBRANCH  49  52
ENDBRANCH  46  49
ENDBRANCH   3  46
TORSDOF 11
ENDMDL
MODEL 10
REMARK VINA RESULT:      -5.8      2.907      4.074
REMARK  11 active torsions:
REMARK  status: ('A' for Active; 'I' for Inactive)
REMARK    1  A    between atoms: N_1  and  S_2 
REMARK    2  A    between atoms: S_2  and  C_5 
REMARK    3  A    between atoms: C_8  and  C_9 
REMARK    4  A    between atoms: C_9  and  C_10 
REMARK    5  A    between atoms: C_14  and  N_15 
REMARK       I    between atoms: N_15  and  C_16 
REMARK       I    between atoms: C_16  and  N_18 
REMARK    6  A    between atoms: N_18  and  C_19 
REMARK    7  A    between atoms: C_21  and  C_22 
REMARK    8  A    between atoms: C_22  and  C_23 
REMARK    9  A    between atoms: C_23  and  N_24 
REMARK       I    between atoms: N_24  and  C_25 
REMARK   10  A    between atoms: C_25  and  C_27 
REMARK   11  A    between atoms: C_30  and  O_31 
ROOT
HETATM    1  C   LIG     1     -10.814 -26.291  -4.854  1.00  0.00     0.051 C 
HETATM    2  C   LIG     1     -11.237 -25.613  -3.776  1.00  0.00    -0.063 C 
HETATM    3  C   LIG     1     -12.150 -24.406  -3.881  1.00  0.00     0.045 C 
HETATM    4  C   LIG     1     -12.028 -23.777  -5.275  1.00  0.00     0.250 C 
HETATM    5  O   LIG     1     -12.115 -22.558  -5.415  1.00  0.00    -0.271 OA
HETATM    6  N   LIG     1     -11.931 -24.627  -6.347  1.00  0.00    -0.224 NA
HETATM    7  C   LIG     1     -11.359 -25.770  -6.147  1.00  0.00     0.031 C 
HETATM    8  H   LIG     1     -10.937 -25.903  -2.774  1.00  0.00     0.081 H 
HETATM    9  H   LIG     1     -11.790 -23.654  -3.167  1.00  0.00     0.061 H 
HETATM   10  H   LIG     1     -11.316 -26.435  -7.017  1.00  0.00     0.118 H 
ENDROOT
BRANCH   1  11
HETATM   11  N   LIG     1     -10.001 -27.403  -4.751  1.00  0.00    -0.308 N 
HETATM   12  C   LIG     1     -10.394 -28.653  -4.299  1.00  0.00     0.325 C 
HETATM   13  N   LIG     1      -9.368 -29.588  -4.320  1.00  0.00    -0.309 N 
HETATM   14  O   LIG     1     -11.539 -28.894  -3.939  1.00  0.00    -0.247 OA
HETATM   15  H   LIG     1      -8.601 -29.413  -4.954  1.00  0.00     0.170 HD
HETATM   16  H   LIG     1      -9.035 -27.292  -5.024  1.00  0.00     0.170 HD
BRANCH  13  17
HETATM   17  C   LIG     1      -9.529 -30.925  -3.857  1.00  0.00     0.036 A 
HETATM   18  C   LIG     1     -10.104 -31.918  -4.655  1.00  0.00    -0.057 A 
HETATM   19  C   LIG     1     -10.102 -33.246  -4.253  1.00  0.00    -0.080 A 
HETATM   20  H   LIG     1     -10.545 -31.695  -5.622  1.00  0.00     0.086 H 
HETATM   21  C   LIG     1      -9.566 -33.598  -3.020  1.00  0.00    -0.076 A 
HETATM   22  H   LIG     1     -10.495 -34.010  -4.919  1.00  0.00     0.083 H 
HETATM   23  C   LIG     1      -9.071 -32.620  -2.145  1.00  0.00    -0.052 A 
HETATM   24  H   LIG     1      -9.540 -34.654  -2.766  1.00  0.00     0.084 H 
HETATM   25  C   LIG     1      -9.060 -31.276  -2.580  1.00  0.00    -0.051 A 
HETATM   26  H   LIG     1      -8.634 -30.514  -1.930  1.00  0.00     0.087 H 
BRANCH  23  27
HETATM   27  C   LIG     1      -8.446 -32.997  -0.814  1.00  0.00    -0.017 C 
HETATM   28  H   LIG     1      -8.595 -32.167  -0.111  1.00  0.00     0.047 H 
HETATM   29  H   LIG     1      -8.979 -33.857  -0.389  1.00  0.00     0.047 H 
BRANCH  27  30
HETATM   30  C   LIG     1      -6.965 -33.345  -0.873  1.00  0.00    -0.054 A 
HETATM   31  C   LIG     1      -5.991 -32.352  -0.675  1.00  0.00    -0.075 A 
HETATM   32  C   LIG     1      -4.630 -32.673  -0.635  1.00  0.00    -0.060 A 
HETATM   33  H   LIG     1      -6.302 -31.314  -0.538  1.00  0.00     0.084 H 
HETATM   34  C   LIG     1      -4.237 -34.004  -0.783  1.00  0.00     0.074 A 
HETATM   35  H   LIG     1      -3.912 -31.867  -0.489  1.00  0.00     0.085 H 
HETATM   36  C   LIG     1      -5.190 -35.007  -1.006  1.00  0.00    -0.060 A 
HETATM   37  C   LIG     1      -6.549 -34.674  -1.050  1.00  0.00    -0.075 A 
HETATM   38  H   LIG     1      -4.885 -36.042  -1.143  1.00  0.00     0.085 H 
HETATM   39  H   LIG     1      -7.284 -35.465  -1.195  1.00  0.00     0.084 H 
BRANCH  34  40
HETATM   40  S   LIG     1      -2.518 -34.477  -0.705  1.00  0.00     0.239 S 
HETATM   41  O   LIG     1      -2.227 -34.926   0.652  1.00  0.00    -0.206 OA
HETATM   42  O   LIG     1      -1.766 -33.433  -1.336  1.00  0.00    -0.206 OA
BRANCH  40  43
HETATM   43  N   LIG     1      -2.489 -35.822  -1.742  1.00  0.00    -0.225 NA
HETATM   44  H   LIG     1      -1.771 -35.806  -2.469  1.00  0.00     0.136 HD
HETATM   45  H   LIG     1      -2.559 -36.737  -1.280  1.00  0.00     0.136 HD
ENDBRANCH  40  43
ENDBRANCH  34  40
ENDBRANCH  27  30
ENDBRANCH  23  27
ENDBRANCH  13  17
ENDBRANCH   1  11
BRANCH   3  46
HETATM   46  C   LIG     1     -13.608 -24.787  -3.561  1.00  0.00    -0.036 C 
HETATM   47  H   LIG     1     -14.274 -24.192  -4.199  1.00  0.00     0.037 H 
HETATM   48  H   LIG     1     -13.847 -24.509  -2.525  1.00  0.00     0.037 H 
BRANCH  46  49
HETATM   49  C   LIG     1     -13.922 -26.278  -3.755  1.00  0.00    -0.004 C 
HETATM   50  H   LIG     1     -13.264 -26.711  -4.514  1.00  0.00     0.064 H 
HETATM   51  H   LIG     1     -14.960 -26.417  -4.073  1.00  0.00     0.064 H 
BRANCH  49  52
HETATM   52  N   LIG     1     -13.697 -27.058  -2.540  1.00  0.00    -0.361 N 
HETATM   53  C   LIG     1     -14.700 -27.427  -1.675  1.00  0.00     0.221 C 
HETATM   54  O   LIG     1     -15.872 -27.096  -1.850  1.00  0.00    -0.273 OA
HETATM   55  H   LIG     1     -12.764 -27.443  -2.412  1.00  0.00     0.162 HD
BRANCH  53  56
HETATM   56  C   LIG     1     -14.225 -28.197  -0.420  1.00  0.00     0.024 C 
HETATM   57  C   LIG     1     -12.700 -28.157  -0.226  1.00  0.00    -0.051 C 
HETATM   58  C   LIG     1     -12.174 -26.809   0.282  1.00  0.00    -0.040 C 
HETATM   59  H   LIG     1     -12.185 -28.415  -1.160  1.00  0.00     0.034 H 
HETATM   60  H   LIG     1     -12.421 -28.933   0.499  1.00  0.00     0.034 H 
HETATM   61  C   LIG     1     -12.953 -26.219   1.456  1.00  0.00     0.035 C 
HETATM   62  H   LIG     1     -12.185 -26.094  -0.549  1.00  0.00     0.036 H 
HETATM   63  H   LIG     1     -11.121 -26.941   0.574  1.00  0.00     0.036 H 
HETATM   64  C   LIG     1     -14.476 -26.358   1.307  1.00  0.00    -0.040 C 
HETATM   65  H   LIG     1     -12.710 -25.155   1.543  1.00  0.00     0.082 H 
HETATM   66  C   LIG     1     -14.899 -27.764   0.887  1.00  0.00    -0.051 C 
HETATM   67  H   LIG     1     -14.834 -25.639   0.561  1.00  0.00     0.036 H 
HETATM   68  H   LIG     1     -14.962 -26.116   2.258  1.00  0.00     0.036 H 
HETATM   69  H   LIG     1     -15.989 -27.810   0.817  1.00  0.00     0.034 H 
HETATM   70  H   LIG     1     -14.622 -28.474   1.677  1.00  0.00     0.034 H 
HETATM   71  H   LIG     1     -14.499 -29.243  -0.614  1.00  0.00     0.054 H 
BRANCH  61  72
HETATM   72  O   LIG     1     -12.522 -26.823   2.671  1.00  0.00    -0.396 OA
HETATM   73  H   LIG     1     -11.916 -27.550   2.469  1.00  0.00     0.210 HD
ENDBRANCH  61  72
ENDBRANCH  53  56
ENDBRANCH  49  52
ENDBRANCH  46  49
ENDBRANCH   3  46
TORSDOF 11
ENDMDL
