MODEL 1
REMARK VINA RESULT:      -6.9      0.000      0.000
REMARK  11 active torsions:
REMARK  status: ('A' for Active; 'I' for Inactive)
REMARK    1  A    between atoms: C_1  and  C_28 
REMARK    2  A    between atoms: C_6  and  N_7 
REMARK       I    between atoms: N_7  and  C_8 
REMARK       I    between atoms: C_8  and  N_10 
REMARK    3  A    between atoms: N_10  and  C_11 
REMARK    4  A    between atoms: C_15  and  C_16 
REMARK    5  A    between atoms: C_16  and  C_17 
REMARK    6  A    between atoms: C_20  and  S_21 
REMARK    7  A    between atoms: S_21  and  N_24 
REMARK    8  A    between atoms: C_28  and  C_29 
REMARK    9  A    between atoms: C_29  and  N_30 
REMARK       I    between atoms: N_30  and  C_31 
REMARK   10  A    between atoms: C_31  and  C_33 
REMARK   11  A    between atoms: C_37  and  O_41 
ROOT
HETATM    1  C   LIG     1     -15.337 -26.099  -1.738  1.00  0.00    -0.027 A 
HETATM    2  C   LIG     1     -16.452 -25.280  -1.493  1.00  0.00    -0.058 A 
HETATM    3  C   LIG     1     -16.281 -23.910  -1.383  1.00  0.00     0.002 A 
HETATM    4  N   LIG     1     -15.085 -23.306  -1.439  1.00  0.00    -0.271 NA
HETATM    5  C   LIG     1     -14.015 -24.105  -1.681  1.00  0.00     0.028 A 
HETATM    6  C   LIG     1     -14.084 -25.482  -1.908  1.00  0.00     0.060 A 
HETATM    7  H   LIG     1     -17.449 -25.697  -1.389  1.00  0.00     0.086 H 
HETATM    8  H   LIG     1     -17.126 -23.246  -1.237  1.00  0.00     0.114 H 
HETATM    9  H   LIG     1     -13.082 -23.552  -1.714  1.00  0.00     0.118 H 
ENDROOT
BRANCH   6  10
HETATM   10  N   LIG     1     -12.978 -26.262  -2.323  1.00  0.00    -0.307 N 
HETATM   11  C   LIG     1     -12.660 -26.606  -3.623  1.00  0.00     0.325 C 
HETATM   12  O   LIG     1     -13.376 -26.368  -4.585  1.00  0.00    -0.247 OA
HETATM   13  N   LIG     1     -11.434 -27.258  -3.680  1.00  0.00    -0.309 N 
HETATM   14  H   LIG     1     -10.857 -27.206  -2.856  1.00  0.00     0.170 HD
HETATM   15  H   LIG     1     -12.488 -26.768  -1.606  1.00  0.00     0.170 HD
BRANCH  13  16
HETATM   16  C   LIG     1     -10.814 -27.754  -4.850  1.00  0.00     0.036 A 
HETATM   17  C   LIG     1     -10.331 -26.919  -5.860  1.00  0.00    -0.057 A 
HETATM   18  C   LIG     1      -9.657 -27.439  -6.957  1.00  0.00    -0.080 A 
HETATM   19  H   LIG     1     -10.435 -25.842  -5.823  1.00  0.00     0.086 H 
HETATM   20  C   LIG     1      -9.483 -28.808  -7.076  1.00  0.00    -0.076 A 
HETATM   21  H   LIG     1      -9.257 -26.767  -7.711  1.00  0.00     0.083 H 
HETATM   22  C   LIG     1      -9.989 -29.686  -6.107  1.00  0.00    -0.052 A 
HETATM   23  H   LIG     1      -8.942 -29.169  -7.944  1.00  0.00     0.084 H 
HETATM   24  C   LIG     1     -10.657 -29.142  -4.990  1.00  0.00    -0.051 A 
HETATM   25  H   LIG     1     -11.046 -29.814  -4.228  1.00  0.00     0.087 H 
BRANCH  22  26
HETATM   26  C   LIG     1      -9.825 -31.187  -6.231  1.00  0.00    -0.017 C 
HETATM   27  H   LIG     1      -9.346 -31.415  -7.192  1.00  0.00     0.047 H 
HETATM   28  H   LIG     1     -10.820 -31.651  -6.265  1.00  0.00     0.047 H 
BRANCH  26  29
HETATM   29  C   LIG     1      -9.026 -31.852  -5.124  1.00  0.00    -0.054 A 
HETATM   30  C   LIG     1      -7.967 -31.167  -4.507  1.00  0.00    -0.075 A 
HETATM   31  C   LIG     1      -7.214 -31.782  -3.505  1.00  0.00    -0.060 A 
HETATM   32  H   LIG     1      -7.721 -30.151  -4.812  1.00  0.00     0.084 H 
HETATM   33  C   LIG     1      -7.514 -33.095  -3.129  1.00  0.00     0.074 A 
HETATM   34  H   LIG     1      -6.412 -31.232  -3.019  1.00  0.00     0.085 H 
HETATM   35  C   LIG     1      -8.542 -33.800  -3.757  1.00  0.00    -0.060 A 
HETATM   36  C   LIG     1      -9.289 -33.183  -4.760  1.00  0.00    -0.075 A 
HETATM   37  H   LIG     1      -8.775 -34.824  -3.466  1.00  0.00     0.085 H 
HETATM   38  H   LIG     1     -10.076 -33.744  -5.261  1.00  0.00     0.084 H 
BRANCH  33  39
HETATM   39  S   LIG     1      -6.616 -33.862  -1.806  1.00  0.00     0.239 S 
HETATM   40  O   LIG     1      -5.343 -34.334  -2.341  1.00  0.00    -0.206 OA
HETATM   41  O   LIG     1      -6.702 -33.032  -0.647  1.00  0.00    -0.206 OA
BRANCH  39  42
HETATM   42  N   LIG     1      -7.562 -35.216  -1.488  1.00  0.00    -0.225 NA
HETATM   43  H   LIG     1      -7.612 -35.453  -0.496  1.00  0.00     0.136 HD
HETATM   44  H   LIG     1      -7.221 -35.992  -2.054  1.00  0.00     0.136 HD
ENDBRANCH  39  42
ENDBRANCH  33  39
ENDBRANCH  26  29
ENDBRANCH  22  26
ENDBRANCH  13  16
ENDBRANCH   6  10
BRANCH   1  45
HETATM   45  C   LIG     1     -15.542 -27.599  -1.780  1.00  0.00    -0.024 C 
HETATM   46  H   LIG     1     -14.968 -28.004  -2.623  1.00  0.00     0.042 H 
HETATM   47  H   LIG     1     -16.593 -27.816  -2.008  1.00  0.00     0.042 H 
BRANCH  45  48
HETATM   48  C   LIG     1     -15.173 -28.359  -0.494  1.00  0.00    -0.001 C 
HETATM   49  H   LIG     1     -16.009 -28.408   0.210  1.00  0.00     0.064 H 
HETATM   50  H   LIG     1     -14.363 -27.818   0.011  1.00  0.00     0.064 H 
BRANCH  48  51
HETATM   51  N   LIG     1     -14.673 -29.697  -0.738  1.00  0.00    -0.360 N 
HETATM   52  C   LIG     1     -13.354 -29.962  -1.053  1.00  0.00     0.221 C 
HETATM   53  O   LIG     1     -12.516 -29.077  -1.190  1.00  0.00    -0.273 OA
HETATM   54  H   LIG     1     -15.312 -30.466  -0.600  1.00  0.00     0.162 HD
BRANCH  52  55
HETATM   55  C   LIG     1     -13.062 -31.436  -1.358  1.00  0.00     0.024 C 
HETATM   56  H   LIG     1     -13.976 -31.786  -1.857  1.00  0.00     0.054 H 
HETATM   57  C   LIG     1     -11.911 -31.622  -2.362  1.00  0.00    -0.051 C 
HETATM   58  C   LIG     1     -10.518 -31.465  -1.745  1.00  0.00    -0.040 C 
HETATM   59  H   LIG     1     -12.009 -30.926  -3.204  1.00  0.00     0.034 H 
HETATM   60  H   LIG     1     -11.989 -32.630  -2.788  1.00  0.00     0.034 H 
HETATM   61  C   LIG     1     -10.330 -32.319  -0.493  1.00  0.00     0.035 C 
HETATM   62  H   LIG     1     -10.335 -30.413  -1.501  1.00  0.00     0.036 H 
HETATM   63  H   LIG     1      -9.777 -31.757  -2.499  1.00  0.00     0.036 H 
HETATM   64  H   LIG     1      -9.375 -32.079  -0.014  1.00  0.00     0.082 H 
HETATM   65  C   LIG     1     -11.462 -32.126   0.512  1.00  0.00    -0.040 C 
HETATM   66  C   LIG     1     -12.843 -32.305  -0.113  1.00  0.00    -0.051 C 
HETATM   67  H   LIG     1     -11.391 -31.129   0.959  1.00  0.00     0.036 H 
HETATM   68  H   LIG     1     -11.362 -32.857   1.324  1.00  0.00     0.036 H 
HETATM   69  H   LIG     1     -13.597 -32.118   0.658  1.00  0.00     0.034 H 
HETATM   70  H   LIG     1     -12.974 -33.356  -0.401  1.00  0.00     0.034 H 
BRANCH  61  71
HETATM   71  O   LIG     1     -10.285 -33.697  -0.858  1.00  0.00    -0.396 OA
HETATM   72  H   LIG     1      -9.892 -33.746  -1.748  1.00  0.00     0.210 HD
ENDBRANCH  61  71
ENDBRANCH  52  55
ENDBRANCH  48  51
ENDBRANCH  45  48
ENDBRANCH   1  45
TORSDOF 11
ENDMDL
MODEL 2
REMARK VINA RESULT:      -5.9      3.648      9.225
REMARK  11 active torsions:
REMARK  status: ('A' for Active; 'I' for Inactive)
REMARK    1  A    between atoms: C_1  and  C_28 
REMARK    2  A    between atoms: C_6  and  N_7 
REMARK       I    between atoms: N_7  and  C_8 
REMARK       I    between atoms: C_8  and  N_10 
REMARK    3  A    between atoms: N_10  and  C_11 
REMARK    4  A    between atoms: C_15  and  C_16 
REMARK    5  A    between atoms: C_16  and  C_17 
REMARK    6  A    between atoms: C_20  and  S_21 
REMARK    7  A    between atoms: S_21  and  N_24 
REMARK    8  A    between atoms: C_28  and  C_29 
REMARK    9  A    between atoms: C_29  and  N_30 
REMARK       I    between atoms: N_30  and  C_31 
REMARK   10  A    between atoms: C_31  and  C_33 
REMARK   11  A    between atoms: C_37  and  O_41 
ROOT
HETATM    1  C   LIG     1      -8.025 -32.668  -7.699  1.00  0.00    -0.027 A 
HETATM    2  C   LIG     1      -7.580 -32.202  -8.948  1.00  0.00    -0.058 A 
HETATM    3  C   LIG     1      -8.493 -32.031  -9.975  1.00  0.00     0.002 A 
HETATM    4  N   LIG     1      -9.793 -32.342  -9.872  1.00  0.00    -0.271 NA
HETATM    5  C   LIG     1     -10.213 -32.786  -8.660  1.00  0.00     0.028 A 
HETATM    6  C   LIG     1      -9.401 -32.902  -7.528  1.00  0.00     0.060 A 
HETATM    7  H   LIG     1      -6.535 -31.971  -9.127  1.00  0.00     0.086 H 
HETATM    8  H   LIG     1      -8.191 -31.632 -10.938  1.00  0.00     0.114 H 
HETATM    9  H   LIG     1     -11.273 -33.018  -8.646  1.00  0.00     0.118 H 
ENDROOT
BRANCH   6  10
HETATM   10  N   LIG     1      -9.898 -33.206  -6.237  1.00  0.00    -0.307 N 
HETATM   11  C   LIG     1     -10.380 -32.302  -5.311  1.00  0.00     0.325 C 
HETATM   12  O   LIG     1     -10.329 -31.088  -5.453  1.00  0.00    -0.247 OA
HETATM   13  N   LIG     1     -10.915 -32.955  -4.208  1.00  0.00    -0.309 N 
HETATM   14  H   LIG     1     -11.082 -33.944  -4.308  1.00  0.00     0.170 HD
HETATM   15  H   LIG     1      -9.711 -34.130  -5.889  1.00  0.00     0.170 HD
BRANCH  13  16
HETATM   16  C   LIG     1     -11.484 -32.334  -3.072  1.00  0.00     0.036 A 
HETATM   17  C   LIG     1     -10.803 -32.212  -1.859  1.00  0.00    -0.057 A 
HETATM   18  C   LIG     1     -11.363 -31.526  -0.790  1.00  0.00    -0.080 A 
HETATM   19  H   LIG     1      -9.810 -32.617  -1.706  1.00  0.00     0.086 H 
HETATM   20  C   LIG     1     -12.630 -30.978  -0.908  1.00  0.00    -0.076 A 
HETATM   21  H   LIG     1     -10.800 -31.410   0.131  1.00  0.00     0.083 H 
HETATM   22  C   LIG     1     -13.367 -31.114  -2.094  1.00  0.00    -0.052 A 
HETATM   23  H   LIG     1     -13.025 -30.441  -0.052  1.00  0.00     0.084 H 
HETATM   24  C   LIG     1     -12.777 -31.799  -3.177  1.00  0.00    -0.051 A 
HETATM   25  H   LIG     1     -13.337 -31.904  -4.104  1.00  0.00     0.087 H 
BRANCH  22  26
HETATM   26  C   LIG     1     -14.761 -30.539  -2.235  1.00  0.00    -0.017 C 
HETATM   27  H   LIG     1     -15.450 -31.118  -1.606  1.00  0.00     0.047 H 
HETATM   28  H   LIG     1     -15.099 -30.677  -3.270  1.00  0.00     0.047 H 
BRANCH  26  29
HETATM   29  C   LIG     1     -14.904 -29.070  -1.877  1.00  0.00    -0.054 A 
HETATM   30  C   LIG     1     -15.579 -28.689  -0.706  1.00  0.00    -0.075 A 
HETATM   31  C   LIG     1     -15.732 -27.339  -0.384  1.00  0.00    -0.060 A 
HETATM   32  H   LIG     1     -15.995 -29.446  -0.044  1.00  0.00     0.084 H 
HETATM   33  C   LIG     1     -15.219 -26.366  -1.246  1.00  0.00     0.074 A 
HETATM   34  H   LIG     1     -16.236 -27.059   0.537  1.00  0.00     0.085 H 
HETATM   35  C   LIG     1     -14.575 -26.728  -2.431  1.00  0.00    -0.060 A 
HETATM   36  C   LIG     1     -14.427 -28.078  -2.749  1.00  0.00    -0.075 A 
HETATM   37  H   LIG     1     -14.176 -25.970  -3.104  1.00  0.00     0.085 H 
HETATM   38  H   LIG     1     -13.943 -28.356  -3.684  1.00  0.00     0.084 H 
BRANCH  33  39
HETATM   39  S   LIG     1     -15.338 -24.650  -0.813  1.00  0.00     0.239 S 
HETATM   40  O   LIG     1     -14.029 -24.041  -1.025  1.00  0.00    -0.206 OA
HETATM   41  O   LIG     1     -16.536 -24.113  -1.378  1.00  0.00    -0.206 OA
BRANCH  39  42
HETATM   42  N   LIG     1     -15.595 -24.731   0.847  1.00  0.00    -0.225 NA
HETATM   43  H   LIG     1     -14.757 -24.975   1.376  1.00  0.00     0.136 HD
HETATM   44  H   LIG     1     -16.367 -25.372   1.026  1.00  0.00     0.136 HD
ENDBRANCH  39  42
ENDBRANCH  33  39
ENDBRANCH  26  29
ENDBRANCH  22  26
ENDBRANCH  13  16
ENDBRANCH   6  10
BRANCH   1  45
HETATM   45  C   LIG     1      -6.995 -32.917  -6.617  1.00  0.00    -0.024 C 
HETATM   46  H   LIG     1      -7.262 -32.316  -5.739  1.00  0.00     0.042 H 
HETATM   47  H   LIG     1      -6.020 -32.537  -6.948  1.00  0.00     0.042 H 
BRANCH  45  48
HETATM   48  C   LIG     1      -6.809 -34.385  -6.198  1.00  0.00    -0.001 C 
HETATM   49  H   LIG     1      -6.230 -34.953  -6.931  1.00  0.00     0.064 H 
HETATM   50  H   LIG     1      -7.797 -34.859  -6.137  1.00  0.00     0.064 H 
BRANCH  48  51
HETATM   51  N   LIG     1      -6.206 -34.540  -4.889  1.00  0.00    -0.360 N 
HETATM   52  C   LIG     1      -6.933 -34.487  -3.714  1.00  0.00     0.221 C 
HETATM   53  O   LIG     1      -8.139 -34.264  -3.692  1.00  0.00    -0.273 OA
HETATM   54  H   LIG     1      -5.223 -34.765  -4.852  1.00  0.00     0.162 HD
BRANCH  52  55
HETATM   55  C   LIG     1      -6.083 -34.586  -2.441  1.00  0.00     0.024 C 
HETATM   56  H   LIG     1      -5.652 -35.596  -2.493  1.00  0.00     0.054 H 
HETATM   57  C   LIG     1      -4.901 -33.602  -2.435  1.00  0.00    -0.051 C 
HETATM   58  C   LIG     1      -5.292 -32.166  -2.071  1.00  0.00    -0.040 C 
HETATM   59  H   LIG     1      -4.387 -33.599  -3.404  1.00  0.00     0.034 H 
HETATM   60  H   LIG     1      -4.166 -33.956  -1.701  1.00  0.00     0.034 H 
HETATM   61  C   LIG     1      -6.111 -32.087  -0.786  1.00  0.00     0.035 C 
HETATM   62  H   LIG     1      -5.856 -31.714  -2.894  1.00  0.00     0.036 H 
HETATM   63  H   LIG     1      -4.371 -31.582  -1.952  1.00  0.00     0.036 H 
HETATM   64  H   LIG     1      -6.478 -31.067  -0.634  1.00  0.00     0.082 H 
HETATM   65  C   LIG     1      -7.294 -33.052  -0.795  1.00  0.00    -0.040 C 
HETATM   66  C   LIG     1      -6.886 -34.482  -1.139  1.00  0.00    -0.051 C 
HETATM   67  H   LIG     1      -8.045 -32.705  -1.512  1.00  0.00     0.036 H 
HETATM   68  H   LIG     1      -7.767 -33.065   0.195  1.00  0.00     0.036 H 
HETATM   69  H   LIG     1      -7.787 -35.102  -1.160  1.00  0.00     0.034 H 
HETATM   70  H   LIG     1      -6.271 -34.887  -0.324  1.00  0.00     0.034 H 
BRANCH  61  71
HETATM   71  O   LIG     1      -5.281 -32.407   0.329  1.00  0.00    -0.396 OA
HETATM   72  H   LIG     1      -4.443 -32.753  -0.027  1.00  0.00     0.210 HD
ENDBRANCH  61  71
ENDBRANCH  52  55
ENDBRANCH  48  51
ENDBRANCH  45  48
ENDBRANCH   1  45
TORSDOF 11
ENDMDL
MODEL 3
REMARK VINA RESULT:      -5.0      3.683      9.337
REMARK  11 active torsions:
REMARK  status: ('A' for Active; 'I' for Inactive)
REMARK    1  A    between atoms: C_1  and  C_28 
REMARK    2  A    between atoms: C_6  and  N_7 
REMARK       I    between atoms: N_7  and  C_8 
REMARK       I    between atoms: C_8  and  N_10 
REMARK    3  A    between atoms: N_10  and  C_11 
REMARK    4  A    between atoms: C_15  and  C_16 
REMARK    5  A    between atoms: C_16  and  C_17 
REMARK    6  A    between atoms: C_20  and  S_21 
REMARK    7  A    between atoms: S_21  and  N_24 
REMARK    8  A    between atoms: C_28  and  C_29 
REMARK    9  A    between atoms: C_29  and  N_30 
REMARK       I    between atoms: N_30  and  C_31 
REMARK   10  A    between atoms: C_31  and  C_33 
REMARK   11  A    between atoms: C_37  and  O_41 
ROOT
HETATM    1  C   LIG     1      -7.855 -32.237  -7.546  1.00  0.00    -0.027 A 
HETATM    2  C   LIG     1      -7.362 -31.665  -8.731  1.00  0.00    -0.058 A 
HETATM    3  C   LIG     1      -8.251 -31.270  -9.717  1.00  0.00     0.002 A 
HETATM    4  N   LIG     1      -9.577 -31.456  -9.638  1.00  0.00    -0.271 NA
HETATM    5  C   LIG     1     -10.043 -32.005  -8.487  1.00  0.00     0.028 A 
HETATM    6  C   LIG     1      -9.248 -32.347  -7.390  1.00  0.00     0.060 A 
HETATM    7  H   LIG     1      -6.299 -31.523  -8.892  1.00  0.00     0.086 H 
HETATM    8  H   LIG     1      -7.908 -30.786 -10.625  1.00  0.00     0.114 H 
HETATM    9  H   LIG     1     -11.120 -32.125  -8.490  1.00  0.00     0.118 H 
ENDROOT
BRANCH   6  10
HETATM   10  N   LIG     1      -9.776 -32.760  -6.142  1.00  0.00    -0.307 N 
HETATM   11  C   LIG     1     -10.298 -31.940  -5.161  1.00  0.00     0.325 C 
HETATM   12  O   LIG     1     -10.264 -30.718  -5.206  1.00  0.00    -0.247 OA
HETATM   13  N   LIG     1     -10.853 -32.687  -4.129  1.00  0.00    -0.309 N 
HETATM   14  H   LIG     1     -11.000 -33.667  -4.312  1.00  0.00     0.170 HD
HETATM   15  H   LIG     1      -9.583 -33.706  -5.862  1.00  0.00     0.170 HD
BRANCH  13  16
HETATM   16  C   LIG     1     -11.464 -32.166  -2.965  1.00  0.00     0.036 A 
HETATM   17  C   LIG     1     -10.831 -32.159  -1.720  1.00  0.00    -0.057 A 
HETATM   18  C   LIG     1     -11.430 -31.568  -0.617  1.00  0.00    -0.080 A 
HETATM   19  H   LIG     1      -9.847 -32.584  -1.566  1.00  0.00     0.086 H 
HETATM   20  C   LIG     1     -12.689 -31.002  -0.734  1.00  0.00    -0.076 A 
HETATM   21  H   LIG     1     -10.903 -31.541   0.332  1.00  0.00     0.083 H 
HETATM   22  C   LIG     1     -13.379 -31.024  -1.955  1.00  0.00    -0.052 A 
HETATM   23  H   LIG     1     -13.115 -30.541   0.151  1.00  0.00     0.084 H 
HETATM   24  C   LIG     1     -12.750 -31.613  -3.071  1.00  0.00    -0.051 A 
HETATM   25  H   LIG     1     -13.273 -31.630  -4.025  1.00  0.00     0.087 H 
BRANCH  22  26
HETATM   26  C   LIG     1     -14.764 -30.427  -2.098  1.00  0.00    -0.017 C 
HETATM   27  H   LIG     1     -15.460 -30.988  -1.460  1.00  0.00     0.047 H 
HETATM   28  H   LIG     1     -15.107 -30.571  -3.131  1.00  0.00     0.047 H 
BRANCH  26  29
HETATM   29  C   LIG     1     -14.881 -28.953  -1.755  1.00  0.00    -0.054 A 
HETATM   30  C   LIG     1     -15.330 -28.556  -0.485  1.00  0.00    -0.075 A 
HETATM   31  C   LIG     1     -15.461 -27.201  -0.172  1.00  0.00    -0.060 A 
HETATM   32  H   LIG     1     -15.588 -29.303   0.263  1.00  0.00     0.084 H 
HETATM   33  C   LIG     1     -15.153 -26.240  -1.140  1.00  0.00     0.074 A 
HETATM   34  H   LIG     1     -15.787 -26.906   0.823  1.00  0.00     0.085 H 
HETATM   35  C   LIG     1     -14.738 -26.621  -2.417  1.00  0.00    -0.060 A 
HETATM   36  C   LIG     1     -14.611 -27.975  -2.726  1.00  0.00    -0.075 A 
HETATM   37  H   LIG     1     -14.499 -25.872  -3.172  1.00  0.00     0.085 H 
HETATM   38  H   LIG     1     -14.307 -28.267  -3.730  1.00  0.00     0.084 H 
BRANCH  33  39
HETATM   39  S   LIG     1     -15.241 -24.516  -0.733  1.00  0.00     0.239 S 
HETATM   40  O   LIG     1     -13.880 -23.991  -0.706  1.00  0.00    -0.206 OA
HETATM   41  O   LIG     1     -16.282 -23.912  -1.503  1.00  0.00    -0.206 OA
BRANCH  39  42
HETATM   42  N   LIG     1     -15.796 -24.564   0.853  1.00  0.00    -0.225 NA
HETATM   43  H   LIG     1     -15.468 -23.783   1.422  1.00  0.00     0.136 HD
HETATM   44  H   LIG     1     -15.549 -25.467   1.257  1.00  0.00     0.136 HD
ENDBRANCH  39  42
ENDBRANCH  33  39
ENDBRANCH  26  29
ENDBRANCH  22  26
ENDBRANCH  13  16
ENDBRANCH   6  10
BRANCH   1  45
HETATM   45  C   LIG     1      -6.858 -32.727  -6.516  1.00  0.00    -0.024 C 
HETATM   46  H   LIG     1      -5.977 -33.115  -7.042  1.00  0.00     0.042 H 
HETATM   47  H   LIG     1      -7.283 -33.586  -5.980  1.00  0.00     0.042 H 
BRANCH  45  48
HETATM   48  C   LIG     1      -6.417 -31.691  -5.469  1.00  0.00    -0.001 C 
HETATM   49  H   LIG     1      -5.390 -31.857  -5.131  1.00  0.00     0.064 H 
HETATM   50  H   LIG     1      -7.062 -31.790  -4.586  1.00  0.00     0.064 H 
BRANCH  48  51
HETATM   51  N   LIG     1      -6.557 -30.320  -5.919  1.00  0.00    -0.360 N 
HETATM   52  C   LIG     1      -7.063 -29.313  -5.118  1.00  0.00     0.221 C 
HETATM   53  O   LIG     1      -7.470 -29.515  -3.979  1.00  0.00    -0.273 OA
HETATM   54  H   LIG     1      -6.201 -30.091  -6.835  1.00  0.00     0.162 HD
BRANCH  52  55
HETATM   55  C   LIG     1      -7.206 -27.958  -5.823  1.00  0.00     0.024 C 
HETATM   56  H   LIG     1      -6.186 -27.550  -5.814  1.00  0.00     0.054 H 
HETATM   57  C   LIG     1      -7.614 -28.094  -7.300  1.00  0.00    -0.051 C 
HETATM   58  C   LIG     1      -9.107 -28.369  -7.508  1.00  0.00    -0.040 C 
HETATM   59  H   LIG     1      -7.033 -28.880  -7.797  1.00  0.00     0.034 H 
HETATM   60  H   LIG     1      -7.361 -27.157  -7.812  1.00  0.00     0.034 H 
HETATM   61  C   LIG     1      -9.996 -27.383  -6.755  1.00  0.00     0.035 C 
HETATM   62  H   LIG     1      -9.345 -29.391  -7.193  1.00  0.00     0.036 H 
HETATM   63  H   LIG     1      -9.318 -28.303  -8.582  1.00  0.00     0.036 H 
HETATM   64  H   LIG     1     -11.044 -27.692  -6.825  1.00  0.00     0.082 H 
HETATM   65  C   LIG     1      -9.604 -27.257  -5.286  1.00  0.00    -0.040 C 
HETATM   66  C   LIG     1      -8.118 -26.963  -5.095  1.00  0.00    -0.051 C 
HETATM   67  H   LIG     1      -9.864 -28.179  -4.756  1.00  0.00     0.036 H 
HETATM   68  H   LIG     1     -10.172 -26.441  -4.821  1.00  0.00     0.036 H 
HETATM   69  H   LIG     1      -7.910 -26.923  -4.022  1.00  0.00     0.034 H 
HETATM   70  H   LIG     1      -7.899 -25.957  -5.474  1.00  0.00     0.034 H 
BRANCH  61  71
HETATM   71  O   LIG     1      -9.896 -26.094  -7.357  1.00  0.00    -0.396 OA
HETATM   72  H   LIG     1     -10.754 -25.908  -7.781  1.00  0.00     0.210 HD
ENDBRANCH  61  71
ENDBRANCH  52  55
ENDBRANCH  48  51
ENDBRANCH  45  48
ENDBRANCH   1  45
TORSDOF 11
ENDMDL
MODEL 4
REMARK VINA RESULT:      -4.8      3.811      9.480
REMARK  11 active torsions:
REMARK  status: ('A' for Active; 'I' for Inactive)
REMARK    1  A    between atoms: C_1  and  C_28 
REMARK    2  A    between atoms: C_6  and  N_7 
REMARK       I    between atoms: N_7  and  C_8 
REMARK       I    between atoms: C_8  and  N_10 
REMARK    3  A    between atoms: N_10  and  C_11 
REMARK    4  A    between atoms: C_15  and  C_16 
REMARK    5  A    between atoms: C_16  and  C_17 
REMARK    6  A    between atoms: C_20  and  S_21 
REMARK    7  A    between atoms: S_21  and  N_24 
REMARK    8  A    between atoms: C_28  and  C_29 
REMARK    9  A    between atoms: C_29  and  N_30 
REMARK       I    between atoms: N_30  and  C_31 
REMARK   10  A    between atoms: C_31  and  C_33 
REMARK   11  A    between atoms: C_37  and  O_41 
ROOT
HETATM    1  C   LIG     1      -7.678 -32.113  -7.343  1.00  0.00    -0.027 A 
HETATM    2  C   LIG     1      -6.930 -31.439  -8.322  1.00  0.00    -0.058 A 
HETATM    3  C   LIG     1      -7.585 -30.670  -9.270  1.00  0.00     0.002 A 
HETATM    4  N   LIG     1      -8.920 -30.572  -9.352  1.00  0.00    -0.271 NA
HETATM    5  C   LIG     1      -9.633 -31.224  -8.398  1.00  0.00     0.028 A 
HETATM    6  C   LIG     1      -9.075 -31.944  -7.339  1.00  0.00     0.060 A 
HETATM    7  H   LIG     1      -5.847 -31.504  -8.352  1.00  0.00     0.086 H 
HETATM    8  H   LIG     1      -7.036 -30.102 -10.013  1.00  0.00     0.114 H 
HETATM    9  H   LIG     1     -10.703 -31.102  -8.523  1.00  0.00     0.118 H 
ENDROOT
BRANCH   6  10
HETATM   10  N   LIG     1      -9.834 -32.471  -6.266  1.00  0.00    -0.307 N 
HETATM   11  C   LIG     1     -10.251 -31.785  -5.142  1.00  0.00     0.325 C 
HETATM   12  O   LIG     1      -9.909 -30.642  -4.876  1.00  0.00    -0.247 OA
HETATM   13  N   LIG     1     -11.093 -32.569  -4.363  1.00  0.00    -0.309 N 
HETATM   14  H   LIG     1     -11.457 -33.405  -4.793  1.00  0.00     0.170 HD
HETATM   15  H   LIG     1      -9.918 -33.472  -6.222  1.00  0.00     0.170 HD
BRANCH  13  16
HETATM   16  C   LIG     1     -11.691 -32.181  -3.142  1.00  0.00     0.036 A 
HETATM   17  C   LIG     1     -11.070 -32.369  -1.905  1.00  0.00    -0.057 A 
HETATM   18  C   LIG     1     -11.652 -31.904  -0.734  1.00  0.00    -0.080 A 
HETATM   19  H   LIG     1     -10.107 -32.855  -1.806  1.00  0.00     0.086 H 
HETATM   20  C   LIG     1     -12.884 -31.271  -0.778  1.00  0.00    -0.076 A 
HETATM   21  H   LIG     1     -11.133 -32.027   0.212  1.00  0.00     0.083 H 
HETATM   22  C   LIG     1     -13.563 -31.099  -1.993  1.00  0.00    -0.052 A 
HETATM   23  H   LIG     1     -13.297 -30.914   0.159  1.00  0.00     0.084 H 
HETATM   24  C   LIG     1     -12.950 -31.562  -3.177  1.00  0.00    -0.051 A 
HETATM   25  H   LIG     1     -13.465 -31.427  -4.126  1.00  0.00     0.087 H 
BRANCH  22  26
HETATM   26  C   LIG     1     -14.919 -30.427  -2.060  1.00  0.00    -0.017 C 
HETATM   27  H   LIG     1     -15.615 -30.965  -1.402  1.00  0.00     0.047 H 
HETATM   28  H   LIG     1     -15.316 -30.528  -3.078  1.00  0.00     0.047 H 
BRANCH  26  29
HETATM   29  C   LIG     1     -14.940 -28.956  -1.681  1.00  0.00    -0.054 A 
HETATM   30  C   LIG     1     -15.365 -28.561  -0.402  1.00  0.00    -0.075 A 
HETATM   31  C   LIG     1     -15.408 -27.209  -0.056  1.00  0.00    -0.060 A 
HETATM   32  H   LIG     1     -15.671 -29.308   0.328  1.00  0.00     0.084 H 
HETATM   33  C   LIG     1     -15.037 -26.247  -1.001  1.00  0.00     0.074 A 
HETATM   34  H   LIG     1     -15.716 -26.918   0.945  1.00  0.00     0.085 H 
HETATM   35  C   LIG     1     -14.646 -26.623  -2.288  1.00  0.00    -0.060 A 
HETATM   36  C   LIG     1     -14.607 -27.975  -2.629  1.00  0.00    -0.075 A 
HETATM   37  H   LIG     1     -14.358 -25.874  -3.025  1.00  0.00     0.085 H 
HETATM   38  H   LIG     1     -14.321 -28.262  -3.639  1.00  0.00     0.084 H 
BRANCH  33  39
HETATM   39  S   LIG     1     -15.014 -24.532  -0.553  1.00  0.00     0.239 S 
HETATM   40  O   LIG     1     -13.647 -24.183  -0.179  1.00  0.00    -0.206 OA
HETATM   41  O   LIG     1     -15.757 -23.790  -1.523  1.00  0.00    -0.206 OA
BRANCH  39  42
HETATM   42  N   LIG     1     -15.938 -24.530   0.851  1.00  0.00    -0.225 NA
HETATM   43  H   LIG     1     -15.667 -23.803   1.515  1.00  0.00     0.136 HD
HETATM   44  H   LIG     1     -15.907 -25.462   1.263  1.00  0.00     0.136 HD
ENDBRANCH  39  42
ENDBRANCH  33  39
ENDBRANCH  26  29
ENDBRANCH  22  26
ENDBRANCH  13  16
ENDBRANCH   6  10
BRANCH   1  45
HETATM   45  C   LIG     1      -6.943 -33.005  -6.364  1.00  0.00    -0.024 C 
HETATM   46  H   LIG     1      -6.186 -33.576  -6.915  1.00  0.00     0.042 H 
HETATM   47  H   LIG     1      -7.639 -33.752  -5.960  1.00  0.00     0.042 H 
BRANCH  45  48
HETATM   48  C   LIG     1      -6.282 -32.288  -5.175  1.00  0.00    -0.001 C 
HETATM   49  H   LIG     1      -6.920 -31.503  -4.760  1.00  0.00     0.064 H 
HETATM   50  H   LIG     1      -5.365 -31.799  -5.527  1.00  0.00     0.064 H 
BRANCH  48  51
HETATM   51  N   LIG     1      -5.876 -33.186  -4.111  1.00  0.00    -0.360 N 
HETATM   52  C   LIG     1      -4.692 -33.898  -4.139  1.00  0.00     0.221 C 
HETATM   53  O   LIG     1      -3.914 -33.853  -5.087  1.00  0.00    -0.273 OA
HETATM   54  H   LIG     1      -6.461 -33.231  -3.290  1.00  0.00     0.162 HD
BRANCH  52  55
HETATM   55  C   LIG     1      -4.504 -34.855  -2.956  1.00  0.00     0.024 C 
HETATM   56  H   LIG     1      -3.909 -34.271  -2.239  1.00  0.00     0.054 H 
HETATM   57  C   LIG     1      -5.827 -35.202  -2.252  1.00  0.00    -0.051 C 
HETATM   58  C   LIG     1      -6.660 -36.259  -2.985  1.00  0.00    -0.040 C 
HETATM   59  H   LIG     1      -6.439 -34.305  -2.103  1.00  0.00     0.034 H 
HETATM   60  H   LIG     1      -5.592 -35.582  -1.250  1.00  0.00     0.034 H 
HETATM   61  C   LIG     1      -5.852 -37.506  -3.334  1.00  0.00     0.035 C 
HETATM   62  H   LIG     1      -7.085 -35.830  -3.898  1.00  0.00     0.036 H 
HETATM   63  H   LIG     1      -7.500 -36.539  -2.337  1.00  0.00     0.036 H 
HETATM   64  H   LIG     1      -6.445 -38.174  -3.966  1.00  0.00     0.082 H 
HETATM   65  C   LIG     1      -4.545 -37.166  -4.045  1.00  0.00    -0.040 C 
HETATM   66  C   LIG     1      -3.717 -36.128  -3.294  1.00  0.00    -0.051 C 
HETATM   67  H   LIG     1      -4.760 -36.800  -5.054  1.00  0.00     0.036 H 
HETATM   68  H   LIG     1      -3.936 -38.073  -4.149  1.00  0.00     0.036 H 
HETATM   69  H   LIG     1      -2.819 -35.913  -3.881  1.00  0.00     0.034 H 
HETATM   70  H   LIG     1      -3.355 -36.566  -2.355  1.00  0.00     0.034 H 
BRANCH  61  71
HETATM   71  O   LIG     1      -5.539 -38.222  -2.141  1.00  0.00    -0.396 OA
HETATM   72  H   LIG     1      -6.051 -39.051  -2.161  1.00  0.00     0.210 HD
ENDBRANCH  61  71
ENDBRANCH  52  55
ENDBRANCH  48  51
ENDBRANCH  45  48
ENDBRANCH   1  45
TORSDOF 11
ENDMDL
MODEL 5
REMARK VINA RESULT:      -4.7      4.508      9.962
REMARK  11 active torsions:
REMARK  status: ('A' for Active; 'I' for Inactive)
REMARK    1  A    between atoms: C_1  and  C_28 
REMARK    2  A    between atoms: C_6  and  N_7 
REMARK       I    between atoms: N_7  and  C_8 
REMARK       I    between atoms: C_8  and  N_10 
REMARK    3  A    between atoms: N_10  and  C_11 
REMARK    4  A    between atoms: C_15  and  C_16 
REMARK    5  A    between atoms: C_16  and  C_17 
REMARK    6  A    between atoms: C_20  and  S_21 
REMARK    7  A    between atoms: S_21  and  N_24 
REMARK    8  A    between atoms: C_28  and  C_29 
REMARK    9  A    between atoms: C_29  and  N_30 
REMARK       I    between atoms: N_30  and  C_31 
REMARK   10  A    between atoms: C_31  and  C_33 
REMARK   11  A    between atoms: C_37  and  O_41 
ROOT
HETATM    1  C   LIG     1      -8.236 -31.611  -7.395  1.00  0.00    -0.027 A 
HETATM    2  C   LIG     1      -7.406 -30.962  -8.325  1.00  0.00    -0.058 A 
HETATM    3  C   LIG     1      -7.775 -29.721  -8.817  1.00  0.00     0.002 A 
HETATM    4  N   LIG     1      -8.926 -29.110  -8.501  1.00  0.00    -0.271 NA
HETATM    5  C   LIG     1      -9.717 -29.742  -7.597  1.00  0.00     0.028 A 
HETATM    6  C   LIG     1      -9.397 -30.946  -6.963  1.00  0.00     0.060 A 
HETATM    7  H   LIG     1      -6.480 -31.412  -8.668  1.00  0.00     0.086 H 
HETATM    8  H   LIG     1      -7.137 -29.174  -9.503  1.00  0.00     0.114 H 
HETATM    9  H   LIG     1     -10.629 -29.194  -7.387  1.00  0.00     0.118 H 
ENDROOT
BRANCH   6  10
HETATM   10  N   LIG     1     -10.159 -31.498  -5.904  1.00  0.00    -0.307 N 
HETATM   11  C   LIG     1     -10.528 -30.855  -4.739  1.00  0.00     0.325 C 
HETATM   12  O   LIG     1     -10.135 -29.740  -4.422  1.00  0.00    -0.247 OA
HETATM   13  N   LIG     1     -11.388 -31.643  -3.984  1.00  0.00    -0.309 N 
HETATM   14  H   LIG     1     -11.792 -32.441  -4.450  1.00  0.00     0.170 HD
HETATM   15  H   LIG     1     -10.282 -32.495  -5.910  1.00  0.00     0.170 HD
BRANCH  13  16
HETATM   16  C   LIG     1     -11.948 -31.296  -2.734  1.00  0.00     0.036 A 
HETATM   17  C   LIG     1     -11.300 -31.546  -1.521  1.00  0.00    -0.057 A 
HETATM   18  C   LIG     1     -11.845 -31.119  -0.318  1.00  0.00    -0.080 A 
HETATM   19  H   LIG     1     -10.345 -32.053  -1.467  1.00  0.00     0.086 H 
HETATM   20  C   LIG     1     -13.065 -30.463  -0.306  1.00  0.00    -0.076 A 
HETATM   21  H   LIG     1     -11.305 -31.291   0.608  1.00  0.00     0.083 H 
HETATM   22  C   LIG     1     -13.770 -30.229  -1.495  1.00  0.00    -0.052 A 
HETATM   23  H   LIG     1     -13.448 -30.138   0.656  1.00  0.00     0.084 H 
HETATM   24  C   LIG     1     -13.195 -30.653  -2.711  1.00  0.00    -0.051 A 
HETATM   25  H   LIG     1     -13.730 -30.470  -3.641  1.00  0.00     0.087 H 
BRANCH  22  26
HETATM   26  C   LIG     1     -15.114 -29.530  -1.499  1.00  0.00    -0.017 C 
HETATM   27  H   LIG     1     -15.699 -29.879  -0.638  1.00  0.00     0.047 H 
HETATM   28  H   LIG     1     -15.670 -29.837  -2.395  1.00  0.00     0.047 H 
BRANCH  26  29
HETATM   29  C   LIG     1     -15.064 -28.013  -1.463  1.00  0.00    -0.054 A 
HETATM   30  C   LIG     1     -14.817 -27.286  -2.639  1.00  0.00    -0.075 A 
HETATM   31  C   LIG     1     -14.747 -25.891  -2.608  1.00  0.00    -0.060 A 
HETATM   32  H   LIG     1     -14.670 -27.805  -3.584  1.00  0.00     0.084 H 
HETATM   33  C   LIG     1     -14.912 -25.223  -1.391  1.00  0.00     0.074 A 
HETATM   34  H   LIG     1     -14.579 -25.339  -3.529  1.00  0.00     0.085 H 
HETATM   35  C   LIG     1     -15.125 -25.934  -0.209  1.00  0.00    -0.060 A 
HETATM   36  C   LIG     1     -15.191 -27.327  -0.245  1.00  0.00    -0.075 A 
HETATM   37  H   LIG     1     -15.252 -25.414   0.740  1.00  0.00     0.085 H 
HETATM   38  H   LIG     1     -15.336 -27.879   0.683  1.00  0.00     0.084 H 
BRANCH  33  39
HETATM   39  S   LIG     1     -14.902 -23.450  -1.348  1.00  0.00     0.239 S 
HETATM   40  O   LIG     1     -16.288 -22.993  -1.345  1.00  0.00    -0.206 OA
HETATM   41  O   LIG     1     -13.949 -23.016  -0.376  1.00  0.00    -0.206 OA
BRANCH  39  42
HETATM   42  N   LIG     1     -14.249 -23.073  -2.850  1.00  0.00    -0.225 NA
HETATM   43  H   LIG     1     -14.587 -22.187  -3.229  1.00  0.00     0.136 HD
HETATM   44  H   LIG     1     -14.416 -23.854  -3.484  1.00  0.00     0.136 HD
ENDBRANCH  39  42
ENDBRANCH  33  39
ENDBRANCH  26  29
ENDBRANCH  22  26
ENDBRANCH  13  16
ENDBRANCH   6  10
BRANCH   1  45
HETATM   45  C   LIG     1      -7.846 -32.998  -6.930  1.00  0.00    -0.024 C 
HETATM   46  H   LIG     1      -7.679 -32.967  -5.847  1.00  0.00     0.042 H 
HETATM   47  H   LIG     1      -6.878 -33.271  -7.370  1.00  0.00     0.042 H 
BRANCH  45  48
HETATM   48  C   LIG     1      -8.846 -34.119  -7.265  1.00  0.00    -0.001 C 
HETATM   49  H   LIG     1      -9.616 -34.228  -6.496  1.00  0.00     0.064 H 
HETATM   50  H   LIG     1      -8.302 -35.071  -7.306  1.00  0.00     0.064 H 
BRANCH  48  51
HETATM   51  N   LIG     1      -9.480 -33.960  -8.558  1.00  0.00    -0.360 N 
HETATM   52  C   LIG     1      -8.892 -34.372  -9.740  1.00  0.00     0.221 C 
HETATM   53  O   LIG     1      -7.771 -34.866  -9.784  1.00  0.00    -0.273 OA
HETATM   54  H   LIG     1     -10.420 -33.594  -8.575  1.00  0.00     0.162 HD
BRANCH  52  55
HETATM   55  C   LIG     1      -9.698 -34.026 -10.999  1.00  0.00     0.024 C 
HETATM   56  H   LIG     1      -9.974 -35.008 -11.410  1.00  0.00     0.054 H 
HETATM   57  C   LIG     1     -11.013 -33.294 -10.683  1.00  0.00    -0.051 C 
HETATM   58  C   LIG     1     -10.835 -31.803 -10.379  1.00  0.00    -0.040 C 
HETATM   59  H   LIG     1     -11.537 -33.770  -9.845  1.00  0.00     0.034 H 
HETATM   60  H   LIG     1     -11.676 -33.392 -11.553  1.00  0.00     0.034 H 
HETATM   61  C   LIG     1     -10.017 -31.079 -11.444  1.00  0.00     0.035 C 
HETATM   62  H   LIG     1     -10.357 -31.677  -9.401  1.00  0.00     0.036 H 
HETATM   63  H   LIG     1     -11.831 -31.348 -10.313  1.00  0.00     0.036 H 
HETATM   64  H   LIG     1      -9.805 -30.054 -11.125  1.00  0.00     0.082 H 
HETATM   65  C   LIG     1      -8.704 -31.795 -11.749  1.00  0.00    -0.040 C 
HETATM   66  C   LIG     1      -8.899 -33.274 -12.070  1.00  0.00    -0.051 C 
HETATM   67  H   LIG     1      -8.024 -31.694 -10.897  1.00  0.00     0.036 H 
HETATM   68  H   LIG     1      -8.219 -31.323 -12.613  1.00  0.00     0.036 H 
HETATM   69  H   LIG     1      -7.916 -33.722 -12.241  1.00  0.00     0.034 H 
HETATM   70  H   LIG     1      -9.434 -33.368 -13.025  1.00  0.00     0.034 H 
BRANCH  61  71
HETATM   71  O   LIG     1     -10.772 -30.996 -12.652  1.00  0.00    -0.396 OA
HETATM   72  H   LIG     1     -10.142 -30.816 -13.373  1.00  0.00     0.210 HD
ENDBRANCH  61  71
ENDBRANCH  52  55
ENDBRANCH  48  51
ENDBRANCH  45  48
ENDBRANCH   1  45
TORSDOF 11
ENDMDL
