MODEL 1
REMARK VINA RESULT:      -7.1      0.000      0.000
REMARK  14 active torsions:
REMARK  status: ('A' for Active; 'I' for Inactive)
REMARK    1  A    between atoms: N_1  and  S_2 
REMARK    2  A    between atoms: S_2  and  C_5 
REMARK    3  A    between atoms: C_8  and  C_9 
REMARK    4  A    between atoms: C_9  and  C_10 
REMARK    5  A    between atoms: C_14  and  N_15 
REMARK       I    between atoms: N_15  and  C_16 
REMARK    6  A    between atoms: C_16  and  C_18 
REMARK    7  A    between atoms: C_18  and  C_19 
REMARK    8  A    between atoms: C_18  and  C_21 
REMARK    9  A    between atoms: C_19  and  S_20 
REMARK   10  A    between atoms: C_23  and  C_24 
REMARK   11  A    between atoms: C_24  and  C_25 
REMARK   12  A    between atoms: C_25  and  N_26 
REMARK       I    between atoms: N_26  and  C_27 
REMARK   13  A    between atoms: C_27  and  C_29 
REMARK   14  A    between atoms: C_32  and  O_33 
ROOT
HETATM    1  C   LIG     1     -13.122 -25.990   0.880  1.00  0.00     0.058 C 
HETATM    2  H   LIG     1     -13.712 -25.756   1.781  1.00  0.00     0.063 H 
ENDROOT
BRANCH   1   3
HETATM    3  C   LIG     1     -13.296 -27.507   0.720  1.00  0.00     0.231 C 
HETATM    4  N   LIG     1     -12.198 -28.166   0.178  1.00  0.00    -0.327 N 
HETATM    5  H   LIG     1     -11.290 -27.731   0.292  1.00  0.00     0.169 HD
HETATM    6  O   LIG     1     -14.347 -28.069   1.022  1.00  0.00    -0.272 OA
BRANCH   4   7
HETATM    7  C   LIG     1     -12.209 -29.538  -0.153  1.00  0.00     0.035 A 
HETATM    8  C   LIG     1     -11.615 -30.440   0.727  1.00  0.00    -0.057 A 
HETATM    9  C   LIG     1     -11.667 -31.812   0.469  1.00  0.00    -0.080 A 
HETATM   10  H   LIG     1     -11.161 -30.093   1.649  1.00  0.00     0.086 H 
HETATM   11  C   LIG     1     -12.234 -32.281  -0.714  1.00  0.00    -0.076 A 
HETATM   12  H   LIG     1     -11.265 -32.520   1.189  1.00  0.00     0.083 H 
HETATM   13  C   LIG     1     -12.761 -31.383  -1.650  1.00  0.00    -0.052 A 
HETATM   14  H   LIG     1     -12.249 -33.352  -0.911  1.00  0.00     0.084 H 
HETATM   15  C   LIG     1     -12.773 -30.013  -1.341  1.00  0.00    -0.051 A 
HETATM   16  H   LIG     1     -13.199 -29.314  -2.058  1.00  0.00     0.087 H 
BRANCH  13  17
HETATM   17  C   LIG     1     -13.309 -31.872  -2.974  1.00  0.00    -0.017 C 
HETATM   18  H   LIG     1     -13.880 -32.790  -2.789  1.00  0.00     0.047 H 
HETATM   19  H   LIG     1     -14.031 -31.151  -3.379  1.00  0.00     0.047 H 
BRANCH  17  20
HETATM   20  C   LIG     1     -12.250 -32.109  -4.033  1.00  0.00    -0.054 A 
HETATM   21  C   LIG     1     -12.622 -32.297  -5.373  1.00  0.00    -0.075 A 
HETATM   22  C   LIG     1     -11.654 -32.515  -6.355  1.00  0.00    -0.060 A 
HETATM   23  H   LIG     1     -13.670 -32.273  -5.664  1.00  0.00     0.084 H 
HETATM   24  C   LIG     1     -10.301 -32.548  -6.001  1.00  0.00     0.074 A 
HETATM   25  H   LIG     1     -11.961 -32.647  -7.390  1.00  0.00     0.085 H 
HETATM   26  C   LIG     1      -9.911 -32.350  -4.677  1.00  0.00    -0.060 A 
HETATM   27  C   LIG     1     -10.885 -32.129  -3.697  1.00  0.00    -0.075 A 
HETATM   28  H   LIG     1      -8.859 -32.360  -4.398  1.00  0.00     0.085 H 
HETATM   29  H   LIG     1     -10.577 -31.975  -2.664  1.00  0.00     0.084 H 
BRANCH  24  30
HETATM   30  S   LIG     1      -9.093 -32.806  -7.268  1.00  0.00     0.239 S 
HETATM   31  O   LIG     1      -7.837 -32.233  -6.825  1.00  0.00    -0.206 OA
HETATM   32  O   LIG     1      -9.667 -32.512  -8.550  1.00  0.00    -0.206 OA
BRANCH  30  33
HETATM   33  N   LIG     1      -8.867 -34.471  -7.254  1.00  0.00    -0.225 NA
HETATM   34  H   LIG     1      -8.722 -34.801  -8.209  1.00  0.00     0.136 HD
HETATM   35  H   LIG     1      -9.672 -34.909  -6.799  1.00  0.00     0.136 HD
ENDBRANCH  30  33
ENDBRANCH  24  30
ENDBRANCH  17  20
ENDBRANCH  13  17
ENDBRANCH   4   7
ENDBRANCH   1   3
BRANCH   1  36
HETATM   36  C   LIG     1     -11.669 -25.602   1.247  1.00  0.00    -0.011 C 
HETATM   37  H   LIG     1     -11.538 -24.524   1.100  1.00  0.00     0.050 H 
HETATM   38  H   LIG     1     -10.972 -26.105   0.570  1.00  0.00     0.050 H 
BRANCH  36  39
HETATM   39  S   LIG     1     -11.093 -25.954   2.947  1.00  0.00    -0.181 SA
HETATM   40  H   LIG     1     -10.176 -24.967   2.992  1.00  0.00     0.101 HD
ENDBRANCH  36  39
ENDBRANCH   1  36
BRANCH   1  41
HETATM   41  C   LIG     1     -13.708 -25.172  -0.257  1.00  0.00    -0.026 A 
HETATM   42  C   LIG     1     -14.924 -24.489  -0.145  1.00  0.00    -0.067 A 
HETATM   43  C   LIG     1     -15.408 -23.726  -1.213  1.00  0.00    -0.038 A 
HETATM   44  H   LIG     1     -15.502 -24.548   0.775  1.00  0.00     0.085 H 
HETATM   45  C   LIG     1     -14.644 -23.687  -2.372  1.00  0.00     0.008 A 
HETATM   46  N   LIG     1     -13.462 -24.317  -2.515  1.00  0.00    -0.272 NA
HETATM   47  H   LIG     1     -14.965 -23.120  -3.242  1.00  0.00     0.115 H 
HETATM   48  C   LIG     1     -13.027 -25.049  -1.468  1.00  0.00     0.009 A 
HETATM   49  H   LIG     1     -12.071 -25.536  -1.646  1.00  0.00     0.115 H 
BRANCH  43  50
HETATM   50  C   LIG     1     -16.713 -22.978  -1.126  1.00  0.00    -0.025 C 
HETATM   51  H   LIG     1     -17.115 -23.041  -0.107  1.00  0.00     0.042 H 
HETATM   52  H   LIG     1     -17.434 -23.482  -1.781  1.00  0.00     0.042 H 
BRANCH  50  53
HETATM   53  C   LIG     1     -16.605 -21.503  -1.534  1.00  0.00    -0.001 C 
HETATM   54  H   LIG     1     -17.541 -20.989  -1.292  1.00  0.00     0.064 H 
HETATM   55  H   LIG     1     -16.448 -21.399  -2.613  1.00  0.00     0.064 H 
BRANCH  53  56
HETATM   56  N   LIG     1     -15.501 -20.823  -0.884  1.00  0.00    -0.360 N 
HETATM   57  C   LIG     1     -14.580 -20.089  -1.603  1.00  0.00     0.221 C 
HETATM   58  O   LIG     1     -14.688 -19.884  -2.807  1.00  0.00    -0.273 OA
HETATM   59  H   LIG     1     -15.276 -21.093   0.065  1.00  0.00     0.162 HD
BRANCH  57  60
HETATM   60  C   LIG     1     -13.402 -19.582  -0.769  1.00  0.00     0.024 C 
HETATM   61  C   LIG     1     -13.039 -20.550   0.369  1.00  0.00    -0.051 C 
HETATM   62  C   LIG     1     -12.297 -21.797  -0.116  1.00  0.00    -0.040 C 
HETATM   63  H   LIG     1     -13.941 -20.860   0.913  1.00  0.00     0.034 H 
HETATM   64  H   LIG     1     -12.408 -20.024   1.098  1.00  0.00     0.034 H 
HETATM   65  C   LIG     1     -11.080 -21.458  -0.973  1.00  0.00     0.035 C 
HETATM   66  H   LIG     1     -12.980 -22.431  -0.693  1.00  0.00     0.036 H 
HETATM   67  H   LIG     1     -11.983 -22.377   0.760  1.00  0.00     0.036 H 
HETATM   68  C   LIG     1     -11.433 -20.509  -2.116  1.00  0.00    -0.040 C 
HETATM   69  H   LIG     1     -10.668 -22.383  -1.391  1.00  0.00     0.082 H 
HETATM   70  C   LIG     1     -12.185 -19.266  -1.645  1.00  0.00    -0.051 C 
HETATM   71  H   LIG     1     -12.045 -21.039  -2.855  1.00  0.00     0.036 H 
HETATM   72  H   LIG     1     -10.517 -20.183  -2.625  1.00  0.00     0.036 H 
HETATM   73  H   LIG     1     -12.467 -18.684  -2.530  1.00  0.00     0.034 H 
HETATM   74  H   LIG     1     -11.506 -18.630  -1.069  1.00  0.00     0.034 H 
HETATM   75  H   LIG     1     -13.748 -18.646  -0.305  1.00  0.00     0.054 H 
BRANCH  65  76
HETATM   76  O   LIG     1     -10.057 -20.903  -0.149  1.00  0.00    -0.396 OA
HETATM   77  H   LIG     1     -10.077 -19.935  -0.219  1.00  0.00     0.210 HD
ENDBRANCH  65  76
ENDBRANCH  57  60
ENDBRANCH  53  56
ENDBRANCH  50  53
ENDBRANCH  43  50
ENDBRANCH   1  41
TORSDOF 14
ENDMDL
MODEL 2
REMARK VINA RESULT:      -7.1      3.185      6.923
REMARK  14 active torsions:
REMARK  status: ('A' for Active; 'I' for Inactive)
REMARK    1  A    between atoms: N_1  and  S_2 
REMARK    2  A    between atoms: S_2  and  C_5 
REMARK    3  A    between atoms: C_8  and  C_9 
REMARK    4  A    between atoms: C_9  and  C_10 
REMARK    5  A    between atoms: C_14  and  N_15 
REMARK       I    between atoms: N_15  and  C_16 
REMARK    6  A    between atoms: C_16  and  C_18 
REMARK    7  A    between atoms: C_18  and  C_19 
REMARK    8  A    between atoms: C_18  and  C_21 
REMARK    9  A    between atoms: C_19  and  S_20 
REMARK   10  A    between atoms: C_23  and  C_24 
REMARK   11  A    between atoms: C_24  and  C_25 
REMARK   12  A    between atoms: C_25  and  N_26 
REMARK       I    between atoms: N_26  and  C_27 
REMARK   13  A    between atoms: C_27  and  C_29 
REMARK   14  A    between atoms: C_32  and  O_33 
ROOT
HETATM    1  C   LIG     1     -13.337 -23.274  -1.660  1.00  0.00     0.058 C 
HETATM    2  H   LIG     1     -12.975 -22.284  -1.338  1.00  0.00     0.063 H 
ENDROOT
BRANCH   1   3
HETATM    3  C   LIG     1     -12.568 -23.532  -2.963  1.00  0.00     0.231 C 
HETATM    4  N   LIG     1     -12.731 -24.807  -3.494  1.00  0.00    -0.327 N 
HETATM    5  H   LIG     1     -13.578 -25.307  -3.253  1.00  0.00     0.169 HD
HETATM    6  O   LIG     1     -11.842 -22.674  -3.462  1.00  0.00    -0.272 OA
BRANCH   4   7
HETATM    7  C   LIG     1     -12.017 -25.270  -4.619  1.00  0.00     0.035 A 
HETATM    8  C   LIG     1     -12.536 -25.019  -5.887  1.00  0.00    -0.057 A 
HETATM    9  C   LIG     1     -11.825 -25.400  -7.028  1.00  0.00    -0.080 A 
HETATM   10  H   LIG     1     -13.467 -24.474  -6.004  1.00  0.00     0.086 H 
HETATM   11  C   LIG     1     -10.633 -26.113  -6.904  1.00  0.00    -0.076 A 
HETATM   12  H   LIG     1     -12.196 -25.144  -8.016  1.00  0.00     0.083 H 
HETATM   13  C   LIG     1     -10.138 -26.447  -5.638  1.00  0.00    -0.052 A 
HETATM   14  H   LIG     1     -10.100 -26.420  -7.802  1.00  0.00     0.084 H 
HETATM   15  C   LIG     1     -10.823 -25.989  -4.500  1.00  0.00    -0.051 A 
HETATM   16  H   LIG     1     -10.431 -26.231  -3.514  1.00  0.00     0.087 H 
BRANCH  13  17
HETATM   17  C   LIG     1      -8.888 -27.288  -5.488  1.00  0.00    -0.017 C 
HETATM   18  H   LIG     1      -8.231 -27.077  -6.342  1.00  0.00     0.047 H 
HETATM   19  H   LIG     1      -8.323 -26.980  -4.598  1.00  0.00     0.047 H 
BRANCH  17  20
HETATM   20  C   LIG     1      -9.152 -28.776  -5.376  1.00  0.00    -0.054 A 
HETATM   21  C   LIG     1      -8.646 -29.502  -4.287  1.00  0.00    -0.075 A 
HETATM   22  C   LIG     1      -8.885 -30.873  -4.175  1.00  0.00    -0.060 A 
HETATM   23  H   LIG     1      -8.062 -29.006  -3.515  1.00  0.00     0.084 H 
HETATM   24  C   LIG     1      -9.634 -31.530  -5.157  1.00  0.00     0.074 A 
HETATM   25  H   LIG     1      -8.495 -31.417  -3.318  1.00  0.00     0.085 H 
HETATM   26  C   LIG     1     -10.157 -30.823  -6.239  1.00  0.00    -0.060 A 
HETATM   27  C   LIG     1      -9.916 -29.449  -6.346  1.00  0.00    -0.075 A 
HETATM   28  H   LIG     1     -10.753 -31.327  -6.999  1.00  0.00     0.085 H 
HETATM   29  H   LIG     1     -10.325 -28.900  -7.192  1.00  0.00     0.084 H 
BRANCH  24  30
HETATM   30  S   LIG     1      -9.940 -33.264  -4.981  1.00  0.00     0.239 S 
HETATM   31  O   LIG     1     -10.692 -33.715  -6.135  1.00  0.00    -0.206 OA
HETATM   32  O   LIG     1     -10.346 -33.549  -3.634  1.00  0.00    -0.206 OA
BRANCH  30  33
HETATM   33  N   LIG     1      -8.411 -33.944  -5.136  1.00  0.00    -0.225 NA
HETATM   34  H   LIG     1      -7.883 -33.792  -4.275  1.00  0.00     0.136 HD
HETATM   35  H   LIG     1      -7.955 -33.544  -5.960  1.00  0.00     0.136 HD
ENDBRANCH  30  33
ENDBRANCH  24  30
ENDBRANCH  17  20
ENDBRANCH  13  17
ENDBRANCH   4   7
ENDBRANCH   1   3
BRANCH   1  36
HETATM   36  C   LIG     1     -14.853 -23.082  -1.901  1.00  0.00    -0.011 C 
HETATM   37  H   LIG     1     -15.409 -23.786  -1.272  1.00  0.00     0.050 H 
HETATM   38  H   LIG     1     -15.093 -23.322  -2.942  1.00  0.00     0.050 H 
BRANCH  36  39
HETATM   39  S   LIG     1     -15.571 -21.432  -1.568  1.00  0.00    -0.181 SA
HETATM   40  H   LIG     1     -16.765 -21.883  -1.134  1.00  0.00     0.101 HD
ENDBRANCH  36  39
ENDBRANCH   1  36
BRANCH   1  41
HETATM   41  C   LIG     1     -13.012 -24.248  -0.540  1.00  0.00    -0.026 A 
HETATM   42  C   LIG     1     -13.934 -25.189  -0.069  1.00  0.00    -0.067 A 
HETATM   43  C   LIG     1     -13.577 -26.083   0.945  1.00  0.00    -0.038 A 
HETATM   44  H   LIG     1     -14.936 -25.231  -0.491  1.00  0.00     0.085 H 
HETATM   45  C   LIG     1     -12.291 -25.987   1.461  1.00  0.00     0.008 A 
HETATM   46  N   LIG     1     -11.369 -25.106   1.027  1.00  0.00    -0.272 NA
HETATM   47  H   LIG     1     -11.950 -26.645   2.256  1.00  0.00     0.115 H 
HETATM   48  C   LIG     1     -11.749 -24.254   0.050  1.00  0.00     0.009 A 
HETATM   49  H   LIG     1     -10.963 -23.566  -0.254  1.00  0.00     0.115 H 
BRANCH  43  50
HETATM   50  C   LIG     1     -14.544 -27.110   1.475  1.00  0.00    -0.025 C 
HETATM   51  H   LIG     1     -15.332 -26.617   2.057  1.00  0.00     0.042 H 
HETATM   52  H   LIG     1     -13.997 -27.759   2.170  1.00  0.00     0.042 H 
BRANCH  50  53
HETATM   53  C   LIG     1     -15.188 -27.970   0.380  1.00  0.00    -0.001 C 
HETATM   54  H   LIG     1     -15.444 -27.338  -0.476  1.00  0.00     0.064 H 
HETATM   55  H   LIG     1     -16.118 -28.432   0.732  1.00  0.00     0.064 H 
BRANCH  53  56
HETATM   56  N   LIG     1     -14.327 -29.051  -0.060  1.00  0.00    -0.360 N 
HETATM   57  C   LIG     1     -13.651 -28.993  -1.261  1.00  0.00     0.221 C 
HETATM   58  O   LIG     1     -13.654 -27.999  -1.978  1.00  0.00    -0.273 OA
HETATM   59  H   LIG     1     -14.419 -29.944   0.405  1.00  0.00     0.162 HD
BRANCH  57  60
HETATM   60  C   LIG     1     -12.923 -30.288  -1.628  1.00  0.00     0.024 C 
HETATM   61  C   LIG     1     -13.875 -31.494  -1.673  1.00  0.00    -0.051 C 
HETATM   62  C   LIG     1     -14.762 -31.513  -2.920  1.00  0.00    -0.040 C 
HETATM   63  H   LIG     1     -14.514 -31.514  -0.780  1.00  0.00     0.034 H 
HETATM   64  H   LIG     1     -13.283 -32.418  -1.646  1.00  0.00     0.034 H 
HETATM   65  C   LIG     1     -13.960 -31.384  -4.211  1.00  0.00     0.035 C 
HETATM   66  H   LIG     1     -15.492 -30.698  -2.865  1.00  0.00     0.036 H 
HETATM   67  H   LIG     1     -15.329 -32.452  -2.928  1.00  0.00     0.036 H 
HETATM   68  C   LIG     1     -13.022 -30.180  -4.183  1.00  0.00    -0.040 C 
HETATM   69  H   LIG     1     -14.653 -31.279  -5.053  1.00  0.00     0.082 H 
HETATM   70  C   LIG     1     -12.139 -30.144  -2.937  1.00  0.00    -0.051 C 
HETATM   71  H   LIG     1     -13.611 -29.257  -4.231  1.00  0.00     0.036 H 
HETATM   72  H   LIG     1     -12.369 -30.197  -5.065  1.00  0.00     0.036 H 
HETATM   73  H   LIG     1     -11.560 -29.214  -2.958  1.00  0.00     0.034 H 
HETATM   74  H   LIG     1     -11.408 -30.957  -2.989  1.00  0.00     0.034 H 
HETATM   75  H   LIG     1     -12.206 -30.466  -0.813  1.00  0.00     0.054 H 
BRANCH  65  76
HETATM   76  O   LIG     1     -13.233 -32.589  -4.443  1.00  0.00    -0.396 OA
HETATM   77  H   LIG     1     -12.334 -32.496  -4.091  1.00  0.00     0.210 HD
ENDBRANCH  65  76
ENDBRANCH  57  60
ENDBRANCH  53  56
ENDBRANCH  50  53
ENDBRANCH  43  50
ENDBRANCH   1  41
TORSDOF 14
ENDMDL
MODEL 3
REMARK VINA RESULT:      -6.5      4.843      8.956
REMARK  14 active torsions:
REMARK  status: ('A' for Active; 'I' for Inactive)
REMARK    1  A    between atoms: N_1  and  S_2 
REMARK    2  A    between atoms: S_2  and  C_5 
REMARK    3  A    between atoms: C_8  and  C_9 
REMARK    4  A    between atoms: C_9  and  C_10 
REMARK    5  A    between atoms: C_14  and  N_15 
REMARK       I    between atoms: N_15  and  C_16 
REMARK    6  A    between atoms: C_16  and  C_18 
REMARK    7  A    between atoms: C_18  and  C_19 
REMARK    8  A    between atoms: C_18  and  C_21 
REMARK    9  A    between atoms: C_19  and  S_20 
REMARK   10  A    between atoms: C_23  and  C_24 
REMARK   11  A    between atoms: C_24  and  C_25 
REMARK   12  A    between atoms: C_25  and  N_26 
REMARK       I    between atoms: N_26  and  C_27 
REMARK   13  A    between atoms: C_27  and  C_29 
REMARK   14  A    between atoms: C_32  and  O_33 
ROOT
HETATM    1  C   LIG     1     -15.670 -22.631  -1.183  1.00  0.00     0.058 C 
HETATM    2  H   LIG     1     -15.767 -22.820  -0.102  1.00  0.00     0.063 H 
ENDROOT
BRANCH   1   3
HETATM    3  C   LIG     1     -14.481 -21.663  -1.274  1.00  0.00     0.231 C 
HETATM    4  N   LIG     1     -13.510 -21.837  -0.295  1.00  0.00    -0.327 N 
HETATM    5  H   LIG     1     -13.434 -22.755   0.127  1.00  0.00     0.169 HD
HETATM    6  O   LIG     1     -14.431 -20.786  -2.136  1.00  0.00    -0.272 OA
BRANCH   4   7
HETATM    7  C   LIG     1     -12.405 -20.973  -0.143  1.00  0.00     0.035 A 
HETATM    8  C   LIG     1     -12.514 -19.901   0.739  1.00  0.00    -0.057 A 
HETATM    9  C   LIG     1     -11.418 -19.064   0.968  1.00  0.00    -0.080 A 
HETATM   10  H   LIG     1     -13.428 -19.738   1.300  1.00  0.00     0.086 H 
HETATM   11  C   LIG     1     -10.237 -19.245   0.251  1.00  0.00    -0.076 A 
HETATM   12  H   LIG     1     -11.481 -18.270   1.707  1.00  0.00     0.083 H 
HETATM   13  C   LIG     1     -10.137 -20.266  -0.701  1.00  0.00    -0.052 A 
HETATM   14  H   LIG     1      -9.398 -18.573   0.426  1.00  0.00     0.084 H 
HETATM   15  C   LIG     1     -11.219 -21.147  -0.864  1.00  0.00    -0.051 A 
HETATM   16  H   LIG     1     -11.137 -21.955  -1.589  1.00  0.00     0.087 H 
BRANCH  13  17
HETATM   17  C   LIG     1      -8.889 -20.426  -1.544  1.00  0.00    -0.017 C 
HETATM   18  H   LIG     1      -9.193 -20.766  -2.542  1.00  0.00     0.047 H 
HETATM   19  H   LIG     1      -8.405 -19.453  -1.698  1.00  0.00     0.047 H 
BRANCH  17  20
HETATM   20  C   LIG     1      -7.859 -21.367  -0.953  1.00  0.00    -0.054 A 
HETATM   21  C   LIG     1      -7.640 -22.626  -1.532  1.00  0.00    -0.075 A 
HETATM   22  C   LIG     1      -6.692 -23.500  -0.995  1.00  0.00    -0.060 A 
HETATM   23  H   LIG     1      -8.205 -22.938  -2.408  1.00  0.00     0.084 H 
HETATM   24  C   LIG     1      -5.955 -23.118   0.131  1.00  0.00     0.074 A 
HETATM   25  H   LIG     1      -6.528 -24.467  -1.464  1.00  0.00     0.085 H 
HETATM   26  C   LIG     1      -6.149 -21.865   0.712  1.00  0.00    -0.060 A 
HETATM   27  C   LIG     1      -7.098 -20.993   0.169  1.00  0.00    -0.075 A 
HETATM   28  H   LIG     1      -5.567 -21.557   1.579  1.00  0.00     0.085 H 
HETATM   29  H   LIG     1      -7.247 -20.015   0.625  1.00  0.00     0.084 H 
BRANCH  24  30
HETATM   30  S   LIG     1      -4.746 -24.235   0.779  1.00  0.00     0.239 S 
HETATM   31  O   LIG     1      -4.306 -23.735   2.067  1.00  0.00    -0.206 OA
HETATM   32  O   LIG     1      -3.828 -24.610  -0.259  1.00  0.00    -0.206 OA
BRANCH  30  33
HETATM   33  N   LIG     1      -5.636 -25.622   1.106  1.00  0.00    -0.225 NA
HETATM   34  H   LIG     1      -5.867 -26.091   0.229  1.00  0.00     0.136 HD
HETATM   35  H   LIG     1      -6.464 -25.362   1.648  1.00  0.00     0.136 HD
ENDBRANCH  30  33
ENDBRANCH  24  30
ENDBRANCH  17  20
ENDBRANCH  13  17
ENDBRANCH   4   7
ENDBRANCH   1   3
BRANCH   1  36
HETATM   36  C   LIG     1     -17.004 -21.960  -1.589  1.00  0.00    -0.011 C 
HETATM   37  H   LIG     1     -17.465 -22.539  -2.397  1.00  0.00     0.050 H 
HETATM   38  H   LIG     1     -16.808 -20.958  -1.982  1.00  0.00     0.050 H 
BRANCH  36  39
HETATM   39  S   LIG     1     -18.293 -21.773  -0.303  1.00  0.00    -0.181 SA
HETATM   40  H   LIG     1     -18.239 -23.046   0.136  1.00  0.00     0.101 HD
ENDBRANCH  36  39
ENDBRANCH   1  36
BRANCH   1  41
HETATM   41  C   LIG     1     -15.431 -23.975  -1.848  1.00  0.00    -0.026 A 
HETATM   42  C   LIG     1     -14.332 -24.220  -2.679  1.00  0.00    -0.067 A 
HETATM   43  C   LIG     1     -14.142 -25.484  -3.246  1.00  0.00    -0.038 A 
HETATM   44  H   LIG     1     -13.618 -23.427  -2.890  1.00  0.00     0.085 H 
HETATM   45  C   LIG     1     -15.083 -26.464  -2.959  1.00  0.00     0.008 A 
HETATM   46  N   LIG     1     -16.146 -26.274  -2.154  1.00  0.00    -0.272 NA
HETATM   47  H   LIG     1     -15.000 -27.466  -3.373  1.00  0.00     0.115 H 
HETATM   48  C   LIG     1     -16.302 -25.041  -1.627  1.00  0.00     0.009 A 
HETATM   49  H   LIG     1     -17.180 -24.949  -0.990  1.00  0.00     0.115 H 
BRANCH  43  50
HETATM   50  C   LIG     1     -12.970 -25.782  -4.145  1.00  0.00    -0.025 C 
HETATM   51  H   LIG     1     -12.668 -24.875  -4.682  1.00  0.00     0.042 H 
HETATM   52  H   LIG     1     -13.302 -26.502  -4.903  1.00  0.00     0.042 H 
BRANCH  50  53
HETATM   53  C   LIG     1     -11.756 -26.356  -3.402  1.00  0.00    -0.001 C 
HETATM   54  H   LIG     1     -10.857 -26.219  -4.013  1.00  0.00     0.064 H 
HETATM   55  H   LIG     1     -11.868 -27.431  -3.226  1.00  0.00     0.064 H 
BRANCH  53  56
HETATM   56  N   LIG     1     -11.553 -25.740  -2.105  1.00  0.00    -0.360 N 
HETATM   57  C   LIG     1     -11.916 -26.377  -0.936  1.00  0.00     0.221 C 
HETATM   58  O   LIG     1     -12.337 -27.528  -0.911  1.00  0.00    -0.273 OA
HETATM   59  H   LIG     1     -11.367 -24.745  -2.081  1.00  0.00     0.162 HD
BRANCH  57  60
HETATM   60  C   LIG     1     -11.774 -25.509   0.316  1.00  0.00     0.024 C 
HETATM   61  C   LIG     1     -13.134 -25.207   0.967  1.00  0.00    -0.051 C 
HETATM   62  C   LIG     1     -13.713 -26.401   1.730  1.00  0.00    -0.040 C 
HETATM   63  H   LIG     1     -13.859 -24.881   0.211  1.00  0.00     0.034 H 
HETATM   64  H   LIG     1     -13.018 -24.366   1.663  1.00  0.00     0.034 H 
HETATM   65  C   LIG     1     -12.728 -26.988   2.736  1.00  0.00     0.035 C 
HETATM   66  H   LIG     1     -14.013 -27.181   1.020  1.00  0.00     0.036 H 
HETATM   67  H   LIG     1     -14.622 -26.073   2.249  1.00  0.00     0.036 H 
HETATM   68  C   LIG     1     -11.378 -27.306   2.095  1.00  0.00    -0.040 C 
HETATM   69  H   LIG     1     -13.150 -27.907   3.155  1.00  0.00     0.082 H 
HETATM   70  C   LIG     1     -10.796 -26.125   1.321  1.00  0.00    -0.051 C 
HETATM   71  H   LIG     1     -11.490 -28.159   1.416  1.00  0.00     0.036 H 
HETATM   72  H   LIG     1     -10.658 -27.597   2.870  1.00  0.00     0.036 H 
HETATM   73  H   LIG     1      -9.875 -26.461   0.831  1.00  0.00     0.034 H 
HETATM   74  H   LIG     1     -10.495 -25.344   2.027  1.00  0.00     0.034 H 
HETATM   75  H   LIG     1     -11.358 -24.552  -0.032  1.00  0.00     0.054 H 
BRANCH  65  76
HETATM   76  O   LIG     1     -12.570 -26.086   3.830  1.00  0.00    -0.396 OA
HETATM   77  H   LIG     1     -11.990 -25.356   3.564  1.00  0.00     0.210 HD
ENDBRANCH  65  76
ENDBRANCH  57  60
ENDBRANCH  53  56
ENDBRANCH  50  53
ENDBRANCH  43  50
ENDBRANCH   1  41
TORSDOF 14
ENDMDL
MODEL 4
REMARK VINA RESULT:      -6.4      2.980      5.339
REMARK  14 active torsions:
REMARK  status: ('A' for Active; 'I' for Inactive)
REMARK    1  A    between atoms: N_1  and  S_2 
REMARK    2  A    between atoms: S_2  and  C_5 
REMARK    3  A    between atoms: C_8  and  C_9 
REMARK    4  A    between atoms: C_9  and  C_10 
REMARK    5  A    between atoms: C_14  and  N_15 
REMARK       I    between atoms: N_15  and  C_16 
REMARK    6  A    between atoms: C_16  and  C_18 
REMARK    7  A    between atoms: C_18  and  C_19 
REMARK    8  A    between atoms: C_18  and  C_21 
REMARK    9  A    between atoms: C_19  and  S_20 
REMARK   10  A    between atoms: C_23  and  C_24 
REMARK   11  A    between atoms: C_24  and  C_25 
REMARK   12  A    between atoms: C_25  and  N_26 
REMARK       I    between atoms: N_26  and  C_27 
REMARK   13  A    between atoms: C_27  and  C_29 
REMARK   14  A    between atoms: C_32  and  O_33 
ROOT
HETATM    1  C   LIG     1     -14.952 -21.855  -1.597  1.00  0.00     0.058 C 
HETATM    2  H   LIG     1     -15.203 -21.724  -2.662  1.00  0.00     0.063 H 
ENDROOT
BRANCH   1   3
HETATM    3  C   LIG     1     -14.807 -23.376  -1.444  1.00  0.00     0.231 C 
HETATM    4  N   LIG     1     -14.503 -23.807  -0.158  1.00  0.00    -0.327 N 
HETATM    5  H   LIG     1     -14.775 -23.207   0.611  1.00  0.00     0.169 HD
HETATM    6  O   LIG     1     -14.920 -24.132  -2.408  1.00  0.00    -0.272 OA
BRANCH   4   7
HETATM    7  C   LIG     1     -14.217 -25.152   0.156  1.00  0.00     0.035 A 
HETATM    8  C   LIG     1     -13.181 -25.423   1.047  1.00  0.00    -0.057 A 
HETATM    9  C   LIG     1     -12.913 -26.738   1.437  1.00  0.00    -0.080 A 
HETATM   10  H   LIG     1     -12.612 -24.614   1.494  1.00  0.00     0.086 H 
HETATM   11  C   LIG     1     -13.621 -27.794   0.869  1.00  0.00    -0.076 A 
HETATM   12  H   LIG     1     -12.151 -26.943   2.184  1.00  0.00     0.083 H 
HETATM   13  C   LIG     1     -14.609 -27.548  -0.092  1.00  0.00    -0.052 A 
HETATM   14  H   LIG     1     -13.387 -28.815   1.167  1.00  0.00     0.084 H 
HETATM   15  C   LIG     1     -14.922 -26.217  -0.415  1.00  0.00    -0.051 A 
HETATM   16  H   LIG     1     -15.703 -26.021  -1.147  1.00  0.00     0.087 H 
BRANCH  13  17
HETATM   17  C   LIG     1     -15.333 -28.689  -0.775  1.00  0.00    -0.017 C 
HETATM   18  H   LIG     1     -15.733 -29.353   0.001  1.00  0.00     0.047 H 
HETATM   19  H   LIG     1     -16.207 -28.314  -1.323  1.00  0.00     0.047 H 
BRANCH  17  20
HETATM   20  C   LIG     1     -14.475 -29.470  -1.751  1.00  0.00    -0.054 A 
HETATM   21  C   LIG     1     -14.423 -29.093  -3.102  1.00  0.00    -0.075 A 
HETATM   22  C   LIG     1     -13.635 -29.806  -4.008  1.00  0.00    -0.060 A 
HETATM   23  H   LIG     1     -14.995 -28.240  -3.461  1.00  0.00     0.084 H 
HETATM   24  C   LIG     1     -12.891 -30.906  -3.566  1.00  0.00     0.074 A 
HETATM   25  H   LIG     1     -13.598 -29.492  -5.049  1.00  0.00     0.085 H 
HETATM   26  C   LIG     1     -12.919 -31.286  -2.225  1.00  0.00    -0.060 A 
HETATM   27  C   LIG     1     -13.709 -30.568  -1.321  1.00  0.00    -0.075 A 
HETATM   28  H   LIG     1     -12.331 -32.132  -1.873  1.00  0.00     0.085 H 
HETATM   29  H   LIG     1     -13.729 -30.867  -0.274  1.00  0.00     0.084 H 
BRANCH  24  30
HETATM   30  S   LIG     1     -11.885 -31.779  -4.731  1.00  0.00     0.239 S 
HETATM   31  O   LIG     1     -10.804 -30.906  -5.145  1.00  0.00    -0.206 OA
HETATM   32  O   LIG     1     -12.721 -32.472  -5.669  1.00  0.00    -0.206 OA
BRANCH  30  33
HETATM   33  N   LIG     1     -11.171 -32.981  -3.799  1.00  0.00    -0.225 NA
HETATM   34  H   LIG     1     -10.614 -33.591  -4.400  1.00  0.00     0.136 HD
HETATM   35  H   LIG     1     -11.904 -33.484  -3.292  1.00  0.00     0.136 HD
ENDBRANCH  30  33
ENDBRANCH  24  30
ENDBRANCH  17  20
ENDBRANCH  13  17
ENDBRANCH   4   7
ENDBRANCH   1   3
BRANCH   1  36
HETATM   36  C   LIG     1     -16.180 -21.304  -0.832  1.00  0.00    -0.011 C 
HETATM   37  H   LIG     1     -16.376 -20.277  -1.160  1.00  0.00     0.050 H 
HETATM   38  H   LIG     1     -15.958 -21.263   0.239  1.00  0.00     0.050 H 
BRANCH  36  39
HETATM   39  S   LIG     1     -17.767 -22.200  -1.002  1.00  0.00    -0.181 SA
HETATM   40  H   LIG     1     -18.310 -21.354  -1.900  1.00  0.00     0.101 HD
ENDBRANCH  36  39
ENDBRANCH   1  36
BRANCH   1  41
HETATM   41  C   LIG     1     -13.672 -21.077  -1.345  1.00  0.00    -0.026 A 
HETATM   42  C   LIG     1     -12.631 -21.019  -2.277  1.00  0.00    -0.067 A 
HETATM   43  C   LIG     1     -11.483 -20.266  -2.009  1.00  0.00    -0.038 A 
HETATM   44  H   LIG     1     -12.708 -21.559  -3.218  1.00  0.00     0.085 H 
HETATM   45  C   LIG     1     -11.422 -19.601  -0.791  1.00  0.00     0.008 A 
HETATM   46  N   LIG     1     -12.408 -19.620   0.127  1.00  0.00    -0.272 NA
HETATM   47  H   LIG     1     -10.556 -19.004  -0.516  1.00  0.00     0.115 H 
HETATM   48  C   LIG     1     -13.499 -20.360  -0.162  1.00  0.00     0.009 A 
HETATM   49  H   LIG     1     -14.256 -20.339   0.619  1.00  0.00     0.115 H 
BRANCH  43  50
HETATM   50  C   LIG     1     -10.344 -20.179  -2.991  1.00  0.00    -0.025 C 
HETATM   51  H   LIG     1      -9.429 -20.586  -2.542  1.00  0.00     0.042 H 
HETATM   52  H   LIG     1     -10.152 -19.118  -3.191  1.00  0.00     0.042 H 
BRANCH  50  53
HETATM   53  C   LIG     1     -10.618 -20.901  -4.317  1.00  0.00    -0.001 C 
HETATM   54  H   LIG     1     -10.126 -20.363  -5.134  1.00  0.00     0.064 H 
HETATM   55  H   LIG     1     -11.690 -20.925  -4.543  1.00  0.00     0.064 H 
BRANCH  53  56
HETATM   56  N   LIG     1     -10.163 -22.279  -4.307  1.00  0.00    -0.360 N 
HETATM   57  C   LIG     1     -10.975 -23.312  -4.728  1.00  0.00     0.221 C 
HETATM   58  O   LIG     1     -12.081 -23.127  -5.223  1.00  0.00    -0.273 OA
HETATM   59  H   LIG     1      -9.338 -22.497  -3.764  1.00  0.00     0.162 HD
BRANCH  57  60
HETATM   60  C   LIG     1     -10.383 -24.703  -4.494  1.00  0.00     0.024 C 
HETATM   61  C   LIG     1      -9.969 -24.918  -3.029  1.00  0.00    -0.051 C 
HETATM   62  C   LIG     1     -11.160 -25.150  -2.097  1.00  0.00    -0.040 C 
HETATM   63  H   LIG     1      -9.391 -24.059  -2.663  1.00  0.00     0.034 H 
HETATM   64  H   LIG     1      -9.299 -25.785  -2.970  1.00  0.00     0.034 H 
HETATM   65  C   LIG     1     -12.079 -26.265  -2.588  1.00  0.00     0.035 C 
HETATM   66  H   LIG     1     -11.736 -24.224  -1.997  1.00  0.00     0.036 H 
HETATM   67  H   LIG     1     -10.776 -25.399  -1.100  1.00  0.00     0.036 H 
HETATM   68  C   LIG     1     -12.509 -26.053  -4.039  1.00  0.00    -0.040 C 
HETATM   69  H   LIG     1     -12.971 -26.299  -1.953  1.00  0.00     0.082 H 
HETATM   70  C   LIG     1     -11.329 -25.807  -4.977  1.00  0.00    -0.051 C 
HETATM   71  H   LIG     1     -13.195 -25.200  -4.095  1.00  0.00     0.036 H 
HETATM   72  H   LIG     1     -13.054 -26.935  -4.397  1.00  0.00     0.036 H 
HETATM   73  H   LIG     1     -11.728 -25.587  -5.974  1.00  0.00     0.034 H 
HETATM   74  H   LIG     1     -10.751 -26.731  -5.080  1.00  0.00     0.034 H 
HETATM   75  H   LIG     1      -9.466 -24.741  -5.103  1.00  0.00     0.054 H 
BRANCH  65  76
HETATM   76  O   LIG     1     -11.429 -27.524  -2.430  1.00  0.00    -0.396 OA
HETATM   77  H   LIG     1     -11.087 -27.598  -1.526  1.00  0.00     0.210 HD
ENDBRANCH  65  76
ENDBRANCH  57  60
ENDBRANCH  53  56
ENDBRANCH  50  53
ENDBRANCH  43  50
ENDBRANCH   1  41
TORSDOF 14
ENDMDL
MODEL 5
REMARK VINA RESULT:      -6.3      3.564      6.159
REMARK  14 active torsions:
REMARK  status: ('A' for Active; 'I' for Inactive)
REMARK    1  A    between atoms: N_1  and  S_2 
REMARK    2  A    between atoms: S_2  and  C_5 
REMARK    3  A    between atoms: C_8  and  C_9 
REMARK    4  A    between atoms: C_9  and  C_10 
REMARK    5  A    between atoms: C_14  and  N_15 
REMARK       I    between atoms: N_15  and  C_16 
REMARK    6  A    between atoms: C_16  and  C_18 
REMARK    7  A    between atoms: C_18  and  C_19 
REMARK    8  A    between atoms: C_18  and  C_21 
REMARK    9  A    between atoms: C_19  and  S_20 
REMARK   10  A    between atoms: C_23  and  C_24 
REMARK   11  A    between atoms: C_24  and  C_25 
REMARK   12  A    between atoms: C_25  and  N_26 
REMARK       I    between atoms: N_26  and  C_27 
REMARK   13  A    between atoms: C_27  and  C_29 
REMARK   14  A    between atoms: C_32  and  O_33 
ROOT
HETATM    1  C   LIG     1     -11.315 -21.408  -0.559  1.00  0.00     0.058 C 
HETATM    2  H   LIG     1     -11.222 -21.574   0.527  1.00  0.00     0.063 H 
ENDROOT
BRANCH   1   3
HETATM    3  C   LIG     1     -10.586 -22.612  -1.171  1.00  0.00     0.231 C 
HETATM    4  N   LIG     1     -10.448 -22.568  -2.554  1.00  0.00    -0.327 N 
HETATM    5  H   LIG     1     -10.459 -21.657  -2.995  1.00  0.00     0.169 HD
HETATM    6  O   LIG     1     -10.193 -23.547  -0.476  1.00  0.00    -0.272 OA
BRANCH   4   7
HETATM    7  C   LIG     1      -9.911 -23.633  -3.309  1.00  0.00     0.035 A 
HETATM    8  C   LIG     1      -8.527 -23.787  -3.354  1.00  0.00    -0.057 A 
HETATM    9  C   LIG     1      -7.961 -24.869  -4.032  1.00  0.00    -0.080 A 
HETATM   10  H   LIG     1      -7.878 -23.105  -2.814  1.00  0.00     0.086 H 
HETATM   11  C   LIG     1      -8.772 -25.752  -4.743  1.00  0.00    -0.076 A 
HETATM   12  H   LIG     1      -6.886 -25.028  -4.010  1.00  0.00     0.083 H 
HETATM   13  C   LIG     1     -10.159 -25.565  -4.779  1.00  0.00    -0.052 A 
HETATM   14  H   LIG     1      -8.314 -26.579  -5.283  1.00  0.00     0.084 H 
HETATM   15  C   LIG     1     -10.720 -24.519  -4.027  1.00  0.00    -0.051 A 
HETATM   16  H   LIG     1     -11.800 -24.383  -4.037  1.00  0.00     0.087 H 
BRANCH  13  17
HETATM   17  C   LIG     1     -11.045 -26.468  -5.610  1.00  0.00    -0.017 C 
HETATM   18  H   LIG     1     -11.761 -25.838  -6.152  1.00  0.00     0.047 H 
HETATM   19  H   LIG     1     -10.455 -26.977  -6.383  1.00  0.00     0.047 H 
BRANCH  17  20
HETATM   20  C   LIG     1     -11.772 -27.530  -4.809  1.00  0.00    -0.054 A 
HETATM   21  C   LIG     1     -13.099 -27.325  -4.407  1.00  0.00    -0.075 A 
HETATM   22  C   LIG     1     -13.778 -28.298  -3.669  1.00  0.00    -0.060 A 
HETATM   23  H   LIG     1     -13.620 -26.405  -4.665  1.00  0.00     0.084 H 
HETATM   24  C   LIG     1     -13.126 -29.488  -3.326  1.00  0.00     0.074 A 
HETATM   25  H   LIG     1     -14.810 -28.125  -3.376  1.00  0.00     0.085 H 
HETATM   26  C   LIG     1     -11.811 -29.716  -3.729  1.00  0.00    -0.060 A 
HETATM   27  C   LIG     1     -11.138 -28.739  -4.470  1.00  0.00    -0.075 A 
HETATM   28  H   LIG     1     -11.305 -30.647  -3.478  1.00  0.00     0.085 H 
HETATM   29  H   LIG     1     -10.110 -28.920  -4.782  1.00  0.00     0.084 H 
BRANCH  24  30
HETATM   30  S   LIG     1     -14.014 -30.713  -2.409  1.00  0.00     0.239 S 
HETATM   31  O   LIG     1     -15.240 -30.115  -1.916  1.00  0.00    -0.206 OA
HETATM   32  O   LIG     1     -13.109 -31.433  -1.560  1.00  0.00    -0.206 OA
BRANCH  30  33
HETATM   33  N   LIG     1     -14.485 -31.813  -3.589  1.00  0.00    -0.225 NA
HETATM   34  H   LIG     1     -15.504 -31.827  -3.653  1.00  0.00     0.136 HD
HETATM   35  H   LIG     1     -14.087 -32.728  -3.364  1.00  0.00     0.136 HD
ENDBRANCH  30  33
ENDBRANCH  24  30
ENDBRANCH  17  20
ENDBRANCH  13  17
ENDBRANCH   4   7
ENDBRANCH   1   3
BRANCH   1  36
HETATM   36  C   LIG     1     -10.570 -20.076  -0.819  1.00  0.00    -0.011 C 
HETATM   37  H   LIG     1     -11.221 -19.408  -1.394  1.00  0.00     0.050 H 
HETATM   38  H   LIG     1      -9.682 -20.265  -1.430  1.00  0.00     0.050 H 
BRANCH  36  39
HETATM   39  S   LIG     1     -10.011 -19.111   0.631  1.00  0.00    -0.181 SA
HETATM   40  H   LIG     1     -11.043 -18.244   0.629  1.00  0.00     0.101 HD
ENDBRANCH  36  39
ENDBRANCH   1  36
BRANCH   1  41
HETATM   41  C   LIG     1     -12.800 -21.353  -0.872  1.00  0.00    -0.026 A 
HETATM   42  C   LIG     1     -13.592 -22.502  -0.971  1.00  0.00    -0.067 A 
HETATM   43  C   LIG     1     -14.961 -22.396  -1.235  1.00  0.00    -0.038 A 
HETATM   44  H   LIG     1     -13.147 -23.486  -0.842  1.00  0.00     0.085 H 
HETATM   45  C   LIG     1     -15.486 -21.121  -1.402  1.00  0.00     0.008 A 
HETATM   46  N   LIG     1     -14.762 -19.990  -1.302  1.00  0.00    -0.272 NA
HETATM   47  H   LIG     1     -16.541 -20.968  -1.617  1.00  0.00     0.115 H 
HETATM   48  C   LIG     1     -13.442 -20.128  -1.052  1.00  0.00     0.009 A 
HETATM   49  H   LIG     1     -12.912 -19.181  -0.986  1.00  0.00     0.115 H 
BRANCH  43  50
HETATM   50  C   LIG     1     -15.844 -23.613  -1.346  1.00  0.00    -0.025 C 
HETATM   51  H   LIG     1     -15.309 -24.418  -1.863  1.00  0.00     0.042 H 
HETATM   52  H   LIG     1     -16.703 -23.348  -1.975  1.00  0.00     0.042 H 
BRANCH  50  53
HETATM   53  C   LIG     1     -16.350 -24.131   0.007  1.00  0.00    -0.001 C 
HETATM   54  H   LIG     1     -17.306 -24.645  -0.135  1.00  0.00     0.064 H 
HETATM   55  H   LIG     1     -16.525 -23.308   0.709  1.00  0.00     0.064 H 
BRANCH  53  56
HETATM   56  N   LIG     1     -15.411 -25.032   0.647  1.00  0.00    -0.360 N 
HETATM   57  C   LIG     1     -15.346 -26.368   0.311  1.00  0.00     0.221 C 
HETATM   58  O   LIG     1     -15.998 -26.854  -0.606  1.00  0.00    -0.273 OA
HETATM   59  H   LIG     1     -14.976 -24.723   1.507  1.00  0.00     0.162 HD
BRANCH  57  60
HETATM   60  C   LIG     1     -14.411 -27.189   1.202  1.00  0.00     0.024 C 
HETATM   61  C   LIG     1     -13.557 -28.177   0.389  1.00  0.00    -0.051 C 
HETATM   62  C   LIG     1     -12.414 -27.499  -0.369  1.00  0.00    -0.040 C 
HETATM   63  H   LIG     1     -14.182 -28.728  -0.325  1.00  0.00     0.034 H 
HETATM   64  H   LIG     1     -13.135 -28.927   1.070  1.00  0.00     0.034 H 
HETATM   65  C   LIG     1     -11.550 -26.623   0.533  1.00  0.00     0.035 C 
HETATM   66  H   LIG     1     -12.822 -26.889  -1.183  1.00  0.00     0.036 H 
HETATM   67  H   LIG     1     -11.795 -28.278  -0.832  1.00  0.00     0.036 H 
HETATM   68  C   LIG     1     -12.388 -25.627   1.333  1.00  0.00    -0.040 C 
HETATM   69  H   LIG     1     -10.833 -26.071  -0.085  1.00  0.00     0.082 H 
HETATM   70  C   LIG     1     -13.540 -26.290   2.086  1.00  0.00    -0.051 C 
HETATM   71  H   LIG     1     -12.793 -24.865   0.658  1.00  0.00     0.036 H 
HETATM   72  H   LIG     1     -11.753 -25.111   2.065  1.00  0.00     0.036 H 
HETATM   73  H   LIG     1     -14.132 -25.502   2.564  1.00  0.00     0.034 H 
HETATM   74  H   LIG     1     -13.136 -26.901   2.899  1.00  0.00     0.034 H 
HETATM   75  H   LIG     1     -15.069 -27.784   1.853  1.00  0.00     0.054 H 
BRANCH  65  76
HETATM   76  O   LIG     1     -10.777 -27.449   1.401  1.00  0.00    -0.396 OA
HETATM   77  H   LIG     1      -9.894 -27.062   1.512  1.00  0.00     0.210 HD
ENDBRANCH  65  76
ENDBRANCH  57  60
ENDBRANCH  53  56
ENDBRANCH  50  53
ENDBRANCH  43  50
ENDBRANCH   1  41
TORSDOF 14
ENDMDL
MODEL 6
REMARK VINA RESULT:      -6.1      5.374     10.996
REMARK  14 active torsions:
REMARK  status: ('A' for Active; 'I' for Inactive)
REMARK    1  A    between atoms: N_1  and  S_2 
REMARK    2  A    between atoms: S_2  and  C_5 
REMARK    3  A    between atoms: C_8  and  C_9 
REMARK    4  A    between atoms: C_9  and  C_10 
REMARK    5  A    between atoms: C_14  and  N_15 
REMARK       I    between atoms: N_15  and  C_16 
REMARK    6  A    between atoms: C_16  and  C_18 
REMARK    7  A    between atoms: C_18  and  C_19 
REMARK    8  A    between atoms: C_18  and  C_21 
REMARK    9  A    between atoms: C_19  and  S_20 
REMARK   10  A    between atoms: C_23  and  C_24 
REMARK   11  A    between atoms: C_24  and  C_25 
REMARK   12  A    between atoms: C_25  and  N_26 
REMARK       I    between atoms: N_26  and  C_27 
REMARK   13  A    between atoms: C_27  and  C_29 
REMARK   14  A    between atoms: C_32  and  O_33 
ROOT
HETATM    1  C   LIG     1      -7.809 -33.853  -3.542  1.00  0.00     0.058 C 
HETATM    2  H   LIG     1      -8.527 -34.573  -3.965  1.00  0.00     0.063 H 
ENDROOT
BRANCH   1   3
HETATM    3  C   LIG     1      -8.693 -32.895  -2.730  1.00  0.00     0.231 C 
HETATM    4  N   LIG     1      -9.774 -33.496  -2.096  1.00  0.00    -0.327 N 
HETATM    5  H   LIG     1      -9.698 -34.482  -1.878  1.00  0.00     0.169 HD
HETATM    6  O   LIG     1      -8.462 -31.688  -2.688  1.00  0.00    -0.272 OA
BRANCH   4   7
HETATM    7  C   LIG     1     -10.763 -32.767  -1.402  1.00  0.00     0.035 A 
HETATM    8  C   LIG     1     -10.706 -32.725  -0.010  1.00  0.00    -0.057 A 
HETATM    9  C   LIG     1     -11.625 -31.956   0.709  1.00  0.00    -0.080 A 
HETATM   10  H   LIG     1      -9.914 -33.238   0.525  1.00  0.00     0.086 H 
HETATM   11  C   LIG     1     -12.659 -31.298   0.045  1.00  0.00    -0.076 A 
HETATM   12  H   LIG     1     -11.539 -31.868   1.788  1.00  0.00     0.083 H 
HETATM   13  C   LIG     1     -12.781 -31.397  -1.346  1.00  0.00    -0.052 A 
HETATM   14  H   LIG     1     -13.379 -30.720   0.621  1.00  0.00     0.084 H 
HETATM   15  C   LIG     1     -11.804 -32.108  -2.063  1.00  0.00    -0.051 A 
HETATM   16  H   LIG     1     -11.886 -32.170  -3.146  1.00  0.00     0.087 H 
BRANCH  13  17
HETATM   17  C   LIG     1     -13.943 -30.753  -2.073  1.00  0.00    -0.017 C 
HETATM   18  H   LIG     1     -13.763 -30.843  -3.152  1.00  0.00     0.047 H 
HETATM   19  H   LIG     1     -14.870 -31.309  -1.881  1.00  0.00     0.047 H 
BRANCH  17  20
HETATM   20  C   LIG     1     -14.185 -29.306  -1.693  1.00  0.00    -0.054 A 
HETATM   21  C   LIG     1     -15.331 -28.950  -0.967  1.00  0.00    -0.075 A 
HETATM   22  C   LIG     1     -15.562 -27.619  -0.611  1.00  0.00    -0.060 A 
HETATM   23  H   LIG     1     -16.054 -29.706  -0.668  1.00  0.00     0.084 H 
HETATM   24  C   LIG     1     -14.644 -26.632  -0.985  1.00  0.00     0.074 A 
HETATM   25  H   LIG     1     -16.450 -27.364  -0.038  1.00  0.00     0.085 H 
HETATM   26  C   LIG     1     -13.493 -26.968  -1.696  1.00  0.00    -0.060 A 
HETATM   27  C   LIG     1     -13.265 -28.303  -2.047  1.00  0.00    -0.075 A 
HETATM   28  H   LIG     1     -12.768 -26.206  -1.976  1.00  0.00     0.085 H 
HETATM   29  H   LIG     1     -12.365 -28.563  -2.602  1.00  0.00     0.084 H 
BRANCH  24  30
HETATM   30  S   LIG     1     -14.950 -24.956  -0.505  1.00  0.00     0.239 S 
HETATM   31  O   LIG     1     -13.701 -24.223  -0.584  1.00  0.00    -0.206 OA
HETATM   32  O   LIG     1     -15.788 -24.932   0.660  1.00  0.00    -0.206 OA
BRANCH  30  33
HETATM   33  N   LIG     1     -15.908 -24.365  -1.753  1.00  0.00    -0.225 NA
HETATM   34  H   LIG     1     -15.371 -23.694  -2.304  1.00  0.00     0.136 HD
HETATM   35  H   LIG     1     -16.759 -23.963  -1.353  1.00  0.00     0.136 HD
ENDBRANCH  30  33
ENDBRANCH  24  30
ENDBRANCH  17  20
ENDBRANCH  13  17
ENDBRANCH   4   7
ENDBRANCH   1   3
BRANCH   1  36
HETATM   36  C   LIG     1      -7.170 -33.162  -4.771  1.00  0.00    -0.011 C 
HETATM   37  H   LIG     1      -6.094 -33.369  -4.780  1.00  0.00     0.050 H 
HETATM   38  H   LIG     1      -7.288 -32.077  -4.685  1.00  0.00     0.050 H 
BRANCH  36  39
HETATM   39  S   LIG     1      -7.789 -33.624  -6.429  1.00  0.00    -0.181 SA
HETATM   40  H   LIG     1      -7.123 -34.794  -6.506  1.00  0.00     0.101 HD
ENDBRANCH  36  39
ENDBRANCH   1  36
BRANCH   1  41
HETATM   41  C   LIG     1      -6.824 -34.651  -2.706  1.00  0.00    -0.026 A 
HETATM   42  C   LIG     1      -6.086 -34.081  -1.662  1.00  0.00    -0.067 A 
HETATM   43  C   LIG     1      -5.212 -34.866  -0.903  1.00  0.00    -0.038 A 
HETATM   44  H   LIG     1      -6.189 -33.023  -1.434  1.00  0.00     0.085 H 
HETATM   45  C   LIG     1      -5.104 -36.210  -1.235  1.00  0.00     0.008 A 
HETATM   46  N   LIG     1      -5.805 -36.800  -2.222  1.00  0.00    -0.272 NA
HETATM   47  H   LIG     1      -4.437 -36.875  -0.692  1.00  0.00     0.115 H 
HETATM   48  C   LIG     1      -6.636 -36.013  -2.938  1.00  0.00     0.009 A 
HETATM   49  H   LIG     1      -7.170 -36.546  -3.722  1.00  0.00     0.115 H 
BRANCH  43  50
HETATM   50  C   LIG     1      -4.404 -34.285   0.229  1.00  0.00    -0.025 C 
HETATM   51  H   LIG     1      -3.372 -34.110  -0.098  1.00  0.00     0.042 H 
HETATM   52  H   LIG     1      -4.359 -35.035   1.028  1.00  0.00     0.042 H 
BRANCH  50  53
HETATM   53  C   LIG     1      -4.983 -32.981   0.792  1.00  0.00    -0.001 C 
HETATM   54  H   LIG     1      -5.332 -33.149   1.816  1.00  0.00     0.064 H 
HETATM   55  H   LIG     1      -5.846 -32.643   0.207  1.00  0.00     0.064 H 
BRANCH  53  56
HETATM   56  N   LIG     1      -4.023 -31.894   0.785  1.00  0.00    -0.360 N 
HETATM   57  C   LIG     1      -3.932 -31.016  -0.275  1.00  0.00     0.221 C 
HETATM   58  O   LIG     1      -4.712 -31.034  -1.221  1.00  0.00    -0.273 OA
HETATM   59  H   LIG     1      -3.261 -31.936   1.450  1.00  0.00     0.162 HD
BRANCH  57  60
HETATM   60  C   LIG     1      -2.758 -30.039  -0.176  1.00  0.00     0.024 C 
HETATM   61  C   LIG     1      -2.762 -29.013  -1.320  1.00  0.00    -0.051 C 
HETATM   62  C   LIG     1      -3.822 -27.923  -1.146  1.00  0.00    -0.040 C 
HETATM   63  H   LIG     1      -2.918 -29.512  -2.285  1.00  0.00     0.034 H 
HETATM   64  H   LIG     1      -1.773 -28.539  -1.378  1.00  0.00     0.034 H 
HETATM   65  C   LIG     1      -3.743 -27.242   0.217  1.00  0.00     0.035 C 
HETATM   66  H   LIG     1      -4.820 -28.355  -1.277  1.00  0.00     0.036 H 
HETATM   67  H   LIG     1      -3.687 -27.178  -1.940  1.00  0.00     0.036 H 
HETATM   68  C   LIG     1      -3.755 -28.253   1.362  1.00  0.00    -0.040 C 
HETATM   69  H   LIG     1      -4.598 -26.566   0.329  1.00  0.00     0.082 H 
HETATM   70  C   LIG     1      -2.709 -29.353   1.193  1.00  0.00    -0.051 C 
HETATM   71  H   LIG     1      -4.748 -28.711   1.434  1.00  0.00     0.036 H 
HETATM   72  H   LIG     1      -3.563 -27.740   2.313  1.00  0.00     0.036 H 
HETATM   73  H   LIG     1      -2.839 -30.073   2.009  1.00  0.00     0.034 H 
HETATM   74  H   LIG     1      -1.710 -28.925   1.324  1.00  0.00     0.034 H 
HETATM   75  H   LIG     1      -1.852 -30.653  -0.289  1.00  0.00     0.054 H 
BRANCH  65  76
HETATM   76  O   LIG     1      -2.577 -26.423   0.275  1.00  0.00    -0.396 OA
HETATM   77  H   LIG     1      -1.788 -26.986   0.270  1.00  0.00     0.210 HD
ENDBRANCH  65  76
ENDBRANCH  57  60
ENDBRANCH  53  56
ENDBRANCH  50  53
ENDBRANCH  43  50
ENDBRANCH   1  41
TORSDOF 14
ENDMDL
MODEL 7
REMARK VINA RESULT:      -5.9      5.433     13.912
REMARK  14 active torsions:
REMARK  status: ('A' for Active; 'I' for Inactive)
REMARK    1  A    between atoms: N_1  and  S_2 
REMARK    2  A    between atoms: S_2  and  C_5 
REMARK    3  A    between atoms: C_8  and  C_9 
REMARK    4  A    between atoms: C_9  and  C_10 
REMARK    5  A    between atoms: C_14  and  N_15 
REMARK       I    between atoms: N_15  and  C_16 
REMARK    6  A    between atoms: C_16  and  C_18 
REMARK    7  A    between atoms: C_18  and  C_19 
REMARK    8  A    between atoms: C_18  and  C_21 
REMARK    9  A    between atoms: C_19  and  S_20 
REMARK   10  A    between atoms: C_23  and  C_24 
REMARK   11  A    between atoms: C_24  and  C_25 
REMARK   12  A    between atoms: C_25  and  N_26 
REMARK       I    between atoms: N_26  and  C_27 
REMARK   13  A    between atoms: C_27  and  C_29 
REMARK   14  A    between atoms: C_32  and  O_33 
ROOT
HETATM    1  C   LIG     1      -8.331 -32.328  -5.035  1.00  0.00     0.058 C 
HETATM    2  H   LIG     1      -9.011 -33.042  -5.529  1.00  0.00     0.063 H 
ENDROOT
BRANCH   1   3
HETATM    3  C   LIG     1      -9.196 -31.714  -3.926  1.00  0.00     0.231 C 
HETATM    4  N   LIG     1     -10.107 -32.589  -3.345  1.00  0.00    -0.327 N 
HETATM    5  H   LIG     1      -9.892 -33.578  -3.382  1.00  0.00     0.169 HD
HETATM    6  O   LIG     1      -9.098 -30.528  -3.617  1.00  0.00    -0.272 OA
BRANCH   4   7
HETATM    7  C   LIG     1     -11.066 -32.183  -2.392  1.00  0.00     0.035 A 
HETATM    8  C   LIG     1     -10.799 -32.402  -1.043  1.00  0.00    -0.057 A 
HETATM    9  C   LIG     1     -11.692 -31.951  -0.067  1.00  0.00    -0.080 A 
HETATM   10  H   LIG     1      -9.871 -32.870  -0.733  1.00  0.00     0.086 H 
HETATM   11  C   LIG     1     -12.896 -31.358  -0.440  1.00  0.00    -0.076 A 
HETATM   12  H   LIG     1     -11.451 -32.060   0.987  1.00  0.00     0.083 H 
HETATM   13  C   LIG     1     -13.220 -31.206  -1.793  1.00  0.00    -0.052 A 
HETATM   14  H   LIG     1     -13.591 -31.030   0.332  1.00  0.00     0.084 H 
HETATM   15  C   LIG     1     -12.278 -31.591  -2.762  1.00  0.00    -0.051 A 
HETATM   16  H   LIG     1     -12.518 -31.456  -3.815  1.00  0.00     0.087 H 
BRANCH  13  17
HETATM   17  C   LIG     1     -14.558 -30.636  -2.214  1.00  0.00    -0.017 C 
HETATM   18  H   LIG     1     -14.666 -30.783  -3.296  1.00  0.00     0.047 H 
HETATM   19  H   LIG     1     -15.377 -31.204  -1.755  1.00  0.00     0.047 H 
BRANCH  17  20
HETATM   20  C   LIG     1     -14.749 -29.175  -1.856  1.00  0.00    -0.054 A 
HETATM   21  C   LIG     1     -14.131 -28.175  -2.620  1.00  0.00    -0.075 A 
HETATM   22  C   LIG     1     -14.303 -26.827  -2.298  1.00  0.00    -0.060 A 
HETATM   23  H   LIG     1     -13.511 -28.435  -3.475  1.00  0.00     0.084 H 
HETATM   24  C   LIG     1     -15.097 -26.471  -1.203  1.00  0.00     0.074 A 
HETATM   25  H   LIG     1     -13.825 -26.065  -2.909  1.00  0.00     0.085 H 
HETATM   26  C   LIG     1     -15.731 -27.450  -0.440  1.00  0.00    -0.060 A 
HETATM   27  C   LIG     1     -15.557 -28.799  -0.768  1.00  0.00    -0.075 A 
HETATM   28  H   LIG     1     -16.362 -27.178   0.404  1.00  0.00     0.085 H 
HETATM   29  H   LIG     1     -16.054 -29.562  -0.170  1.00  0.00     0.084 H 
BRANCH  24  30
HETATM   30  S   LIG     1     -15.315 -24.755  -0.829  1.00  0.00     0.239 S 
HETATM   31  O   LIG     1     -16.540 -24.302  -1.458  1.00  0.00    -0.206 OA
HETATM   32  O   LIG     1     -14.066 -24.064  -0.982  1.00  0.00    -0.206 OA
BRANCH  30  33
HETATM   33  N   LIG     1     -15.621 -24.755   0.823  1.00  0.00    -0.225 NA
HETATM   34  H   LIG     1     -16.483 -25.270   1.008  1.00  0.00     0.136 HD
HETATM   35  H   LIG     1     -15.656 -23.788   1.152  1.00  0.00     0.136 HD
ENDBRANCH  30  33
ENDBRANCH  24  30
ENDBRANCH  17  20
ENDBRANCH  13  17
ENDBRANCH   4   7
ENDBRANCH   1   3
BRANCH   1  36
HETATM   36  C   LIG     1      -7.971 -31.300  -6.135  1.00  0.00    -0.011 C 
HETATM   37  H   LIG     1      -8.617 -30.422  -6.031  1.00  0.00     0.050 H 
HETATM   38  H   LIG     1      -8.170 -31.732  -7.121  1.00  0.00     0.050 H 
BRANCH  36  39
HETATM   39  S   LIG     1      -6.256 -30.663  -6.182  1.00  0.00    -0.181 SA
HETATM   40  H   LIG     1      -6.122 -30.525  -4.847  1.00  0.00     0.101 HD
ENDBRANCH  36  39
ENDBRANCH   1  36
BRANCH   1  41
HETATM   41  C   LIG     1      -7.143 -33.127  -4.529  1.00  0.00    -0.026 A 
HETATM   42  C   LIG     1      -6.599 -34.202  -5.241  1.00  0.00    -0.067 A 
HETATM   43  C   LIG     1      -5.487 -34.889  -4.744  1.00  0.00    -0.038 A 
HETATM   44  H   LIG     1      -7.039 -34.510  -6.187  1.00  0.00     0.085 H 
HETATM   45  C   LIG     1      -4.963 -34.469  -3.528  1.00  0.00     0.008 A 
HETATM   46  N   LIG     1      -5.447 -33.431  -2.819  1.00  0.00    -0.272 NA
HETATM   47  H   LIG     1      -4.104 -34.963  -3.081  1.00  0.00     0.115 H 
HETATM   48  C   LIG     1      -6.525 -32.794  -3.324  1.00  0.00     0.009 A 
HETATM   49  H   LIG     1      -6.871 -31.969  -2.705  1.00  0.00     0.115 H 
BRANCH  43  50
HETATM   50  C   LIG     1      -4.875 -36.049  -5.486  1.00  0.00    -0.025 C 
HETATM   51  H   LIG     1      -4.604 -36.844  -4.780  1.00  0.00     0.042 H 
HETATM   52  H   LIG     1      -3.941 -35.701  -5.943  1.00  0.00     0.042 H 
BRANCH  50  53
HETATM   53  C   LIG     1      -5.784 -36.631  -6.575  1.00  0.00    -0.001 C 
HETATM   54  H   LIG     1      -5.193 -36.831  -7.475  1.00  0.00     0.064 H 
HETATM   55  H   LIG     1      -6.573 -35.924  -6.856  1.00  0.00     0.064 H 
BRANCH  53  56
HETATM   56  N   LIG     1      -6.448 -37.851  -6.157  1.00  0.00    -0.360 N 
HETATM   57  C   LIG     1      -6.104 -39.079  -6.683  1.00  0.00     0.221 C 
HETATM   58  O   LIG     1      -5.163 -39.231  -7.454  1.00  0.00    -0.273 OA
HETATM   59  H   LIG     1      -7.324 -37.762  -5.658  1.00  0.00     0.162 HD
BRANCH  57  60
HETATM   60  C   LIG     1      -7.019 -40.224  -6.241  1.00  0.00     0.024 C 
HETATM   61  C   LIG     1      -6.447 -41.600  -6.619  1.00  0.00    -0.051 C 
HETATM   62  C   LIG     1      -5.288 -42.036  -5.719  1.00  0.00    -0.040 C 
HETATM   63  H   LIG     1      -6.108 -41.603  -7.663  1.00  0.00     0.034 H 
HETATM   64  H   LIG     1      -7.246 -42.349  -6.554  1.00  0.00     0.034 H 
HETATM   65  C   LIG     1      -5.638 -41.962  -4.236  1.00  0.00     0.035 C 
HETATM   66  H   LIG     1      -4.412 -41.407  -5.916  1.00  0.00     0.036 H 
HETATM   67  H   LIG     1      -5.011 -43.064  -5.984  1.00  0.00     0.036 H 
HETATM   68  C   LIG     1      -6.193 -40.594  -3.847  1.00  0.00    -0.040 C 
HETATM   69  H   LIG     1      -4.737 -42.164  -3.646  1.00  0.00     0.082 H 
HETATM   70  C   LIG     1      -7.343 -40.142  -4.746  1.00  0.00    -0.051 C 
HETATM   71  H   LIG     1      -5.390 -39.849  -3.892  1.00  0.00     0.036 H 
HETATM   72  H   LIG     1      -6.557 -40.620  -2.813  1.00  0.00     0.036 H 
HETATM   73  H   LIG     1      -7.626 -39.126  -4.451  1.00  0.00     0.034 H 
HETATM   74  H   LIG     1      -8.219 -40.768  -4.552  1.00  0.00     0.034 H 
HETATM   75  H   LIG     1      -7.953 -40.091  -6.807  1.00  0.00     0.054 H 
BRANCH  65  76
HETATM   76  O   LIG     1      -6.565 -42.996  -3.913  1.00  0.00    -0.396 OA
HETATM   77  H   LIG     1      -6.435 -43.271  -2.992  1.00  0.00     0.210 HD
ENDBRANCH  65  76
ENDBRANCH  57  60
ENDBRANCH  53  56
ENDBRANCH  50  53
ENDBRANCH  43  50
ENDBRANCH   1  41
TORSDOF 14
ENDMDL
MODEL 8
REMARK VINA RESULT:      -5.6      6.615     14.657
REMARK  14 active torsions:
REMARK  status: ('A' for Active; 'I' for Inactive)
REMARK    1  A    between atoms: N_1  and  S_2 
REMARK    2  A    between atoms: S_2  and  C_5 
REMARK    3  A    between atoms: C_8  and  C_9 
REMARK    4  A    between atoms: C_9  and  C_10 
REMARK    5  A    between atoms: C_14  and  N_15 
REMARK       I    between atoms: N_15  and  C_16 
REMARK    6  A    between atoms: C_16  and  C_18 
REMARK    7  A    between atoms: C_18  and  C_19 
REMARK    8  A    between atoms: C_18  and  C_21 
REMARK    9  A    between atoms: C_19  and  S_20 
REMARK   10  A    between atoms: C_23  and  C_24 
REMARK   11  A    between atoms: C_24  and  C_25 
REMARK   12  A    between atoms: C_25  and  N_26 
REMARK       I    between atoms: N_26  and  C_27 
REMARK   13  A    between atoms: C_27  and  C_29 
REMARK   14  A    between atoms: C_32  and  O_33 
ROOT
HETATM    1  C   LIG     1      -7.967 -33.580  -3.820  1.00  0.00     0.058 C 
HETATM    2  H   LIG     1      -8.666 -34.330  -4.223  1.00  0.00     0.063 H 
ENDROOT
BRANCH   1   3
HETATM    3  C   LIG     1      -8.880 -32.603  -3.066  1.00  0.00     0.231 C 
HETATM    4  N   LIG     1      -9.872 -33.205  -2.300  1.00  0.00    -0.327 N 
HETATM    5  H   LIG     1      -9.704 -34.150  -1.979  1.00  0.00     0.169 HD
HETATM    6  O   LIG     1      -8.747 -31.385  -3.174  1.00  0.00    -0.272 OA
BRANCH   4   7
HETATM    7  C   LIG     1     -10.877 -32.475  -1.630  1.00  0.00     0.035 A 
HETATM    8  C   LIG     1     -10.810 -32.367  -0.243  1.00  0.00    -0.057 A 
HETATM    9  C   LIG     1     -11.747 -31.595   0.449  1.00  0.00    -0.080 A 
HETATM   10  H   LIG     1      -9.998 -32.830   0.308  1.00  0.00     0.086 H 
HETATM   11  C   LIG     1     -12.806 -31.001  -0.234  1.00  0.00    -0.076 A 
HETATM   12  H   LIG     1     -11.654 -31.454   1.523  1.00  0.00     0.083 H 
HETATM   13  C   LIG     1     -12.938 -31.168  -1.618  1.00  0.00    -0.052 A 
HETATM   14  H   LIG     1     -13.539 -30.419   0.322  1.00  0.00     0.084 H 
HETATM   15  C   LIG     1     -11.945 -31.880  -2.310  1.00  0.00    -0.051 A 
HETATM   16  H   LIG     1     -12.034 -31.995  -3.389  1.00  0.00     0.087 H 
BRANCH  13  17
HETATM   17  C   LIG     1     -14.125 -30.595  -2.361  1.00  0.00    -0.017 C 
HETATM   18  H   LIG     1     -13.904 -30.629  -3.436  1.00  0.00     0.047 H 
HETATM   19  H   LIG     1     -15.009 -31.232  -2.221  1.00  0.00     0.047 H 
BRANCH  17  20
HETATM   20  C   LIG     1     -14.499 -29.187  -1.941  1.00  0.00    -0.054 A 
HETATM   21  C   LIG     1     -13.889 -28.083  -2.555  1.00  0.00    -0.075 A 
HETATM   22  C   LIG     1     -14.227 -26.782  -2.175  1.00  0.00    -0.060 A 
HETATM   23  H   LIG     1     -13.145 -28.225  -3.336  1.00  0.00     0.084 H 
HETATM   24  C   LIG     1     -15.181 -26.578  -1.172  1.00  0.00     0.074 A 
HETATM   25  H   LIG     1     -13.752 -25.939  -2.670  1.00  0.00     0.085 H 
HETATM   26  C   LIG     1     -15.808 -27.663  -0.561  1.00  0.00    -0.060 A 
HETATM   27  C   LIG     1     -15.467 -28.963  -0.947  1.00  0.00    -0.075 A 
HETATM   28  H   LIG     1     -16.562 -27.509   0.210  1.00  0.00     0.085 H 
HETATM   29  H   LIG     1     -15.959 -29.809  -0.467  1.00  0.00     0.084 H 
BRANCH  24  30
HETATM   30  S   LIG     1     -15.607 -24.920  -0.724  1.00  0.00     0.239 S 
HETATM   31  O   LIG     1     -15.771 -24.864   0.716  1.00  0.00    -0.206 OA
HETATM   32  O   LIG     1     -16.593 -24.411  -1.634  1.00  0.00    -0.206 OA
BRANCH  30  33
HETATM   33  N   LIG     1     -14.205 -24.057  -1.059  1.00  0.00    -0.225 NA
HETATM   34  H   LIG     1     -13.840 -23.654  -0.195  1.00  0.00     0.136 HD
HETATM   35  H   LIG     1     -14.414 -23.353  -1.771  1.00  0.00     0.136 HD
ENDBRANCH  30  33
ENDBRANCH  24  30
ENDBRANCH  17  20
ENDBRANCH  13  17
ENDBRANCH   4   7
ENDBRANCH   1   3
BRANCH   1  36
HETATM   36  C   LIG     1      -7.318 -32.933  -5.067  1.00  0.00    -0.011 C 
HETATM   37  H   LIG     1      -7.929 -32.082  -5.389  1.00  0.00     0.050 H 
HETATM   38  H   LIG     1      -7.309 -33.652  -5.892  1.00  0.00     0.050 H 
BRANCH  36  39
HETATM   39  S   LIG     1      -5.609 -32.297  -4.910  1.00  0.00    -0.181 SA
HETATM   40  H   LIG     1      -5.775 -31.750  -3.689  1.00  0.00     0.101 HD
ENDBRANCH  36  39
ENDBRANCH   1  36
BRANCH   1  41
HETATM   41  C   LIG     1      -6.984 -34.325  -2.933  1.00  0.00    -0.026 A 
HETATM   42  C   LIG     1      -6.570 -35.634  -3.201  1.00  0.00    -0.067 A 
HETATM   43  C   LIG     1      -5.642 -36.267  -2.368  1.00  0.00    -0.038 A 
HETATM   44  H   LIG     1      -6.970 -36.169  -4.060  1.00  0.00     0.085 H 
HETATM   45  C   LIG     1      -5.166 -35.551  -1.277  1.00  0.00     0.008 A 
HETATM   46  N   LIG     1      -5.527 -34.285  -0.992  1.00  0.00    -0.272 NA
HETATM   47  H   LIG     1      -4.448 -35.985  -0.586  1.00  0.00     0.115 H 
HETATM   48  C   LIG     1      -6.429 -33.706  -1.813  1.00  0.00     0.009 A 
HETATM   49  H   LIG     1      -6.683 -32.688  -1.529  1.00  0.00     0.115 H 
BRANCH  43  50
HETATM   50  C   LIG     1      -5.174 -37.676  -2.628  1.00  0.00    -0.025 C 
HETATM   51  H   LIG     1      -5.127 -38.235  -1.686  1.00  0.00     0.042 H 
HETATM   52  H   LIG     1      -4.148 -37.623  -3.015  1.00  0.00     0.042 H 
BRANCH  50  53
HETATM   53  C   LIG     1      -6.051 -38.441  -3.627  1.00  0.00    -0.001 C 
HETATM   54  H   LIG     1      -5.648 -38.317  -4.637  1.00  0.00     0.064 H 
HETATM   55  H   LIG     1      -7.076 -38.053  -3.636  1.00  0.00     0.064 H 
BRANCH  53  56
HETATM   56  N   LIG     1      -6.145 -39.855  -3.318  1.00  0.00    -0.360 N 
HETATM   57  C   LIG     1      -5.190 -40.754  -3.746  1.00  0.00     0.221 C 
HETATM   58  O   LIG     1      -4.164 -40.409  -4.322  1.00  0.00    -0.273 OA
HETATM   59  H   LIG     1      -7.037 -40.208  -2.997  1.00  0.00     0.162 HD
BRANCH  57  60
HETATM   60  C   LIG     1      -5.541 -42.217  -3.464  1.00  0.00     0.024 C 
HETATM   61  C   LIG     1      -4.352 -43.157  -3.723  1.00  0.00    -0.051 C 
HETATM   62  C   LIG     1      -3.284 -43.090  -2.628  1.00  0.00    -0.040 C 
HETATM   63  H   LIG     1      -3.886 -42.931  -4.690  1.00  0.00     0.034 H 
HETATM   64  H   LIG     1      -4.721 -44.188  -3.794  1.00  0.00     0.034 H 
HETATM   65  C   LIG     1      -3.864 -43.291  -1.231  1.00  0.00     0.035 C 
HETATM   66  H   LIG     1      -2.773 -42.122  -2.671  1.00  0.00     0.036 H 
HETATM   67  H   LIG     1      -2.531 -43.861  -2.831  1.00  0.00     0.036 H 
HETATM   68  C   LIG     1      -5.037 -42.351  -0.959  1.00  0.00    -0.040 C 
HETATM   69  H   LIG     1      -3.080 -43.109  -0.489  1.00  0.00     0.082 H 
HETATM   70  C   LIG     1      -6.103 -42.400  -2.051  1.00  0.00    -0.051 C 
HETATM   71  H   LIG     1      -4.666 -41.323  -0.866  1.00  0.00     0.036 H 
HETATM   72  H   LIG     1      -5.510 -42.614  -0.005  1.00  0.00     0.036 H 
HETATM   73  H   LIG     1      -6.861 -41.643  -1.819  1.00  0.00     0.034 H 
HETATM   74  H   LIG     1      -6.617 -43.365  -2.010  1.00  0.00     0.034 H 
HETATM   75  H   LIG     1      -6.328 -42.477  -4.187  1.00  0.00     0.054 H 
BRANCH  65  76
HETATM   76  O   LIG     1      -4.257 -44.652  -1.070  1.00  0.00    -0.396 OA
HETATM   77  H   LIG     1      -4.157 -45.119  -1.914  1.00  0.00     0.210 HD
ENDBRANCH  65  76
ENDBRANCH  57  60
ENDBRANCH  53  56
ENDBRANCH  50  53
ENDBRANCH  43  50
ENDBRANCH   1  41
TORSDOF 14
ENDMDL
MODEL 9
REMARK VINA RESULT:      -5.3     13.933     17.821
REMARK  14 active torsions:
REMARK  status: ('A' for Active; 'I' for Inactive)
REMARK    1  A    between atoms: N_1  and  S_2 
REMARK    2  A    between atoms: S_2  and  C_5 
REMARK    3  A    between atoms: C_8  and  C_9 
REMARK    4  A    between atoms: C_9  and  C_10 
REMARK    5  A    between atoms: C_14  and  N_15 
REMARK       I    between atoms: N_15  and  C_16 
REMARK    6  A    between atoms: C_16  and  C_18 
REMARK    7  A    between atoms: C_18  and  C_19 
REMARK    8  A    between atoms: C_18  and  C_21 
REMARK    9  A    between atoms: C_19  and  S_20 
REMARK   10  A    between atoms: C_23  and  C_24 
REMARK   11  A    between atoms: C_24  and  C_25 
REMARK   12  A    between atoms: C_25  and  N_26 
REMARK       I    between atoms: N_26  and  C_27 
REMARK   13  A    between atoms: C_27  and  C_29 
REMARK   14  A    between atoms: C_32  and  O_33 
ROOT
HETATM    1  C   LIG     1      -2.119 -28.053  10.005  1.00  0.00     0.058 C 
HETATM    2  H   LIG     1      -3.005 -28.685   9.831  1.00  0.00     0.063 H 
ENDROOT
BRANCH   1   3
HETATM    3  C   LIG     1      -2.409 -26.792   9.178  1.00  0.00     0.231 C 
HETATM    4  N   LIG     1      -1.330 -25.927   9.036  1.00  0.00    -0.327 N 
HETATM    5  H   LIG     1      -0.401 -26.323   9.117  1.00  0.00     0.169 HD
HETATM    6  O   LIG     1      -3.527 -26.569   8.716  1.00  0.00    -0.272 OA
BRANCH   4   7
HETATM    7  C   LIG     1      -1.431 -24.666   8.411  1.00  0.00     0.035 A 
HETATM    8  C   LIG     1      -0.954 -24.526   7.109  1.00  0.00    -0.057 A 
HETATM    9  C   LIG     1      -1.099 -23.313   6.432  1.00  0.00    -0.080 A 
HETATM   10  H   LIG     1      -0.520 -25.373   6.587  1.00  0.00     0.086 H 
HETATM   11  C   LIG     1      -1.642 -22.208   7.085  1.00  0.00    -0.076 A 
HETATM   12  H   LIG     1      -0.790 -23.224   5.395  1.00  0.00     0.083 H 
HETATM   13  C   LIG     1      -2.050 -22.305   8.421  1.00  0.00    -0.052 A 
HETATM   14  H   LIG     1      -1.730 -21.263   6.551  1.00  0.00     0.084 H 
HETATM   15  C   LIG     1      -1.971 -23.552   9.063  1.00  0.00    -0.051 A 
HETATM   16  H   LIG     1      -2.305 -23.636  10.095  1.00  0.00     0.087 H 
BRANCH  13  17
HETATM   17  C   LIG     1      -2.568 -21.094   9.168  1.00  0.00    -0.017 C 
HETATM   18  H   LIG     1      -2.655 -21.359  10.229  1.00  0.00     0.047 H 
HETATM   19  H   LIG     1      -1.836 -20.277   9.126  1.00  0.00     0.047 H 
BRANCH  17  20
HETATM   20  C   LIG     1      -3.886 -20.561   8.643  1.00  0.00    -0.054 A 
HETATM   21  C   LIG     1      -5.089 -21.197   8.983  1.00  0.00    -0.075 A 
HETATM   22  C   LIG     1      -6.309 -20.713   8.506  1.00  0.00    -0.060 A 
HETATM   23  H   LIG     1      -5.088 -22.076   9.625  1.00  0.00     0.084 H 
HETATM   24  C   LIG     1      -6.332 -19.584   7.680  1.00  0.00     0.074 A 
HETATM   25  H   LIG     1      -7.232 -21.213   8.789  1.00  0.00     0.085 H 
HETATM   26  C   LIG     1      -5.148 -18.929   7.343  1.00  0.00    -0.060 A 
HETATM   27  C   LIG     1      -3.929 -19.418   7.826  1.00  0.00    -0.075 A 
HETATM   28  H   LIG     1      -5.162 -18.041   6.713  1.00  0.00     0.085 H 
HETATM   29  H   LIG     1      -3.006 -18.905   7.561  1.00  0.00     0.084 H 
BRANCH  24  30
HETATM   30  S   LIG     1      -7.892 -18.978   7.106  1.00  0.00     0.239 S 
HETATM   31  O   LIG     1      -7.747 -18.587   5.717  1.00  0.00    -0.206 OA
HETATM   32  O   LIG     1      -8.470 -18.115   8.096  1.00  0.00    -0.206 OA
BRANCH  30  33
HETATM   33  N   LIG     1      -8.860 -20.352   7.096  1.00  0.00    -0.225 NA
HETATM   34  H   LIG     1      -8.737 -20.860   7.973  1.00  0.00     0.136 HD
HETATM   35  H   LIG     1      -8.626 -20.913   6.274  1.00  0.00     0.136 HD
ENDBRANCH  30  33
ENDBRANCH  24  30
ENDBRANCH  17  20
ENDBRANCH  13  17
ENDBRANCH   4   7
ENDBRANCH   1   3
BRANCH   1  36
HETATM   36  C   LIG     1      -0.933 -28.868   9.435  1.00  0.00    -0.011 C 
HETATM   37  H   LIG     1      -0.809 -29.782  10.027  1.00  0.00     0.050 H 
HETATM   38  H   LIG     1      -0.009 -28.291   9.536  1.00  0.00     0.050 H 
BRANCH  36  39
HETATM   39  S   LIG     1      -1.026 -29.406   7.689  1.00  0.00    -0.181 SA
HETATM   40  H   LIG     1      -1.285 -30.702   7.954  1.00  0.00     0.101 HD
ENDBRANCH  36  39
ENDBRANCH   1  36
BRANCH   1  41
HETATM   41  C   LIG     1      -2.035 -27.810  11.502  1.00  0.00    -0.026 A 
HETATM   42  C   LIG     1      -2.914 -26.957  12.177  1.00  0.00    -0.067 A 
HETATM   43  C   LIG     1      -2.812 -26.788  13.562  1.00  0.00    -0.038 A 
HETATM   44  H   LIG     1      -3.683 -26.418  11.629  1.00  0.00     0.085 H 
HETATM   45  C   LIG     1      -1.809 -27.488  14.221  1.00  0.00     0.008 A 
HETATM   46  N   LIG     1      -0.953 -28.329  13.611  1.00  0.00    -0.272 NA
HETATM   47  H   LIG     1      -1.670 -27.397  15.296  1.00  0.00     0.115 H 
HETATM   48  C   LIG     1      -1.075 -28.464  12.274  1.00  0.00     0.009 A 
HETATM   49  H   LIG     1      -0.354 -29.153  11.839  1.00  0.00     0.115 H 
BRANCH  43  50
HETATM   50  C   LIG     1      -3.743 -25.878  14.321  1.00  0.00    -0.025 C 
HETATM   51  H   LIG     1      -3.795 -26.187  15.372  1.00  0.00     0.042 H 
HETATM   52  H   LIG     1      -4.750 -26.004  13.904  1.00  0.00     0.042 H 
BRANCH  50  53
HETATM   53  C   LIG     1      -3.349 -24.397  14.250  1.00  0.00    -0.001 C 
HETATM   54  H   LIG     1      -3.319 -24.078  13.203  1.00  0.00     0.064 H 
HETATM   55  H   LIG     1      -2.350 -24.230  14.669  1.00  0.00     0.064 H 
BRANCH  53  56
HETATM   56  N   LIG     1      -4.259 -23.541  14.987  1.00  0.00    -0.360 N 
HETATM   57  C   LIG     1      -4.295 -22.177  14.783  1.00  0.00     0.221 C 
HETATM   58  O   LIG     1      -3.641 -21.620  13.908  1.00  0.00    -0.273 OA
HETATM   59  H   LIG     1      -4.691 -23.921  15.820  1.00  0.00     0.162 HD
BRANCH  57  60
HETATM   60  C   LIG     1      -5.199 -21.425  15.762  1.00  0.00     0.024 C 
HETATM   61  C   LIG     1      -5.473 -19.983  15.304  1.00  0.00    -0.051 C 
HETATM   62  C   LIG     1      -6.473 -19.899  14.149  1.00  0.00    -0.040 C 
HETATM   63  H   LIG     1      -4.539 -19.490  15.004  1.00  0.00     0.034 H 
HETATM   64  H   LIG     1      -5.864 -19.407  16.153  1.00  0.00     0.034 H 
HETATM   65  C   LIG     1      -7.769 -20.651  14.441  1.00  0.00     0.035 C 
HETATM   66  H   LIG     1      -6.018 -20.303  13.238  1.00  0.00     0.036 H 
HETATM   67  H   LIG     1      -6.693 -18.842  13.957  1.00  0.00     0.036 H 
HETATM   68  C   LIG     1      -7.508 -22.090  14.881  1.00  0.00    -0.040 C 
HETATM   69  H   LIG     1      -8.388 -20.660  13.537  1.00  0.00     0.082 H 
HETATM   70  C   LIG     1      -6.502 -22.187  16.026  1.00  0.00    -0.051 C 
HETATM   71  H   LIG     1      -7.138 -22.670  14.029  1.00  0.00     0.036 H 
HETATM   72  H   LIG     1      -8.447 -22.553  15.210  1.00  0.00     0.036 H 
HETATM   73  H   LIG     1      -6.314 -23.248  16.224  1.00  0.00     0.034 H 
HETATM   74  H   LIG     1      -6.953 -21.784  16.938  1.00  0.00     0.034 H 
HETATM   75  H   LIG     1      -4.633 -21.368  16.703  1.00  0.00     0.054 H 
BRANCH  65  76
HETATM   76  O   LIG     1      -8.517 -19.945  15.428  1.00  0.00    -0.396 OA
HETATM   77  H   LIG     1      -8.756 -19.069  15.087  1.00  0.00     0.210 HD
ENDBRANCH  65  76
ENDBRANCH  57  60
ENDBRANCH  53  56
ENDBRANCH  50  53
ENDBRANCH  43  50
ENDBRANCH   1  41
TORSDOF 14
ENDMDL
