MODEL 1
REMARK VINA RESULT:      -8.0      0.000      0.000
REMARK  11 active torsions:
REMARK  status: ('A' for Active; 'I' for Inactive)
REMARK    1  A    between atoms: N_1  and  S_2 
REMARK    2  A    between atoms: S_2  and  C_5 
REMARK    3  A    between atoms: C_8  and  C_9 
REMARK    4  A    between atoms: C_9  and  C_10 
REMARK    5  A    between atoms: C_14  and  N_15 
REMARK       I    between atoms: N_15  and  C_16 
REMARK       I    between atoms: C_16  and  N_18 
REMARK    6  A    between atoms: N_18  and  C_19 
REMARK    7  A    between atoms: C_21  and  C_22 
REMARK    8  A    between atoms: C_22  and  C_23 
REMARK    9  A    between atoms: C_23  and  N_24 
REMARK       I    between atoms: N_24  and  C_25 
REMARK   10  A    between atoms: C_25  and  C_27 
REMARK   11  A    between atoms: C_30  and  O_31 
ROOT
HETATM    1  C   LIG     1     -12.268  14.159  69.672  1.00  0.00     0.054 A 
HETATM    2  C   LIG     1     -11.815  12.912  69.236  1.00  0.00    -0.048 A 
HETATM    3  C   LIG     1     -12.023  11.768  70.016  1.00  0.00    -0.037 A 
HETATM    4  C   LIG     1     -12.710  11.937  71.214  1.00  0.00     0.008 A 
HETATM    5  N   LIG     1     -13.172  13.127  71.664  1.00  0.00    -0.270 NA
HETATM    6  C   LIG     1     -12.935  14.214  70.889  1.00  0.00     0.028 A 
HETATM    7  H   LIG     1     -11.248  12.838  68.312  1.00  0.00     0.087 H 
HETATM    8  H   LIG     1     -12.909  11.098  71.877  1.00  0.00     0.115 H 
HETATM    9  H   LIG     1     -13.346  15.142  71.277  1.00  0.00     0.118 H 
ENDROOT
BRANCH   1  10
HETATM   10  N   LIG     1     -12.069  15.269  68.830  1.00  0.00    -0.307 N 
HETATM   11  C   LIG     1     -11.038  16.184  68.985  1.00  0.00     0.325 C 
HETATM   12  N   LIG     1     -11.143  17.167  68.020  1.00  0.00    -0.309 N 
HETATM   13  O   LIG     1     -10.174  16.119  69.847  1.00  0.00    -0.247 OA
HETATM   14  H   LIG     1     -12.099  17.468  67.898  1.00  0.00     0.170 HD
HETATM   15  H   LIG     1     -12.337  15.153  67.865  1.00  0.00     0.170 HD
BRANCH  12  16
HETATM   16  C   LIG     1     -10.160  18.154  67.782  1.00  0.00     0.036 A 
HETATM   17  C   LIG     1     -10.604  19.463  67.595  1.00  0.00    -0.057 A 
HETATM   18  C   LIG     1      -9.696  20.470  67.293  1.00  0.00    -0.080 A 
HETATM   19  H   LIG     1     -11.650  19.724  67.724  1.00  0.00     0.086 H 
HETATM   20  C   LIG     1      -8.346  20.166  67.113  1.00  0.00    -0.076 A 
HETATM   21  H   LIG     1     -10.032  21.497  67.181  1.00  0.00     0.083 H 
HETATM   22  C   LIG     1      -7.866  18.857  67.274  1.00  0.00    -0.052 A 
HETATM   23  H   LIG     1      -7.681  20.979  66.837  1.00  0.00     0.084 H 
HETATM   24  C   LIG     1      -8.794  17.852  67.636  1.00  0.00    -0.051 A 
HETATM   25  H   LIG     1      -8.455  16.827  67.756  1.00  0.00     0.087 H 
BRANCH  22  26
HETATM   26  C   LIG     1      -6.399  18.497  67.037  1.00  0.00    -0.017 C 
HETATM   27  H   LIG     1      -5.831  18.738  67.943  1.00  0.00     0.047 H 
HETATM   28  H   LIG     1      -6.329  17.410  66.900  1.00  0.00     0.047 H 
BRANCH  26  29
HETATM   29  C   LIG     1      -5.705  19.170  65.853  1.00  0.00    -0.054 A 
HETATM   30  C   LIG     1      -4.826  20.245  66.066  1.00  0.00    -0.075 A 
HETATM   31  C   LIG     1      -4.309  20.973  64.987  1.00  0.00    -0.060 A 
HETATM   32  H   LIG     1      -4.575  20.544  67.083  1.00  0.00     0.084 H 
HETATM   33  C   LIG     1      -4.662  20.616  63.682  1.00  0.00     0.074 A 
HETATM   34  H   LIG     1      -3.673  21.828  65.204  1.00  0.00     0.085 H 
HETATM   35  C   LIG     1      -5.477  19.511  63.450  1.00  0.00    -0.060 A 
HETATM   36  C   LIG     1      -5.993  18.790  64.531  1.00  0.00    -0.075 A 
HETATM   37  H   LIG     1      -5.733  19.235  62.434  1.00  0.00     0.085 H 
HETATM   38  H   LIG     1      -6.655  17.952  64.333  1.00  0.00     0.084 H 
BRANCH  33  39
HETATM   39  S   LIG     1      -4.189  21.623  62.296  1.00  0.00     0.239 S 
HETATM   40  O   LIG     1      -3.103  20.965  61.621  1.00  0.00    -0.206 OA
HETATM   41  O   LIG     1      -4.070  22.996  62.756  1.00  0.00    -0.206 OA
BRANCH  39  42
HETATM   42  N   LIG     1      -5.555  21.589  61.301  1.00  0.00    -0.225 NA
HETATM   43  H   LIG     1      -5.489  22.169  60.464  1.00  0.00     0.136 HD
HETATM   44  H   LIG     1      -6.414  21.752  61.849  1.00  0.00     0.136 HD
ENDBRANCH  39  42
ENDBRANCH  33  39
ENDBRANCH  26  29
ENDBRANCH  22  26
ENDBRANCH  12  16
ENDBRANCH   1  10
BRANCH   3  45
HETATM   45  C   LIG     1     -11.468  10.426  69.612  1.00  0.00    -0.025 C 
HETATM   46  H   LIG     1     -12.174   9.914  68.944  1.00  0.00     0.042 H 
HETATM   47  H   LIG     1     -11.415   9.808  70.519  1.00  0.00     0.042 H 
BRANCH  45  48
HETATM   48  C   LIG     1     -10.075  10.457  68.962  1.00  0.00    -0.001 C 
HETATM   49  H   LIG     1      -9.851   9.457  68.574  1.00  0.00     0.064 H 
HETATM   50  H   LIG     1      -9.308  10.698  69.705  1.00  0.00     0.064 H 
BRANCH  48  51
HETATM   51  N   LIG     1      -9.954  11.378  67.836  1.00  0.00    -0.360 N 
HETATM   52  C   LIG     1     -10.127  10.947  66.533  1.00  0.00     0.221 C 
HETATM   53  O   LIG     1     -10.359   9.768  66.264  1.00  0.00    -0.273 OA
HETATM   54  H   LIG     1     -10.033  12.369  68.028  1.00  0.00     0.162 HD
BRANCH  52  55
HETATM   55  C   LIG     1      -9.892  12.018  65.446  1.00  0.00     0.024 C 
HETATM   56  C   LIG     1     -10.272  11.541  64.036  1.00  0.00    -0.051 C 
HETATM   57  C   LIG     1     -11.746  11.687  63.633  1.00  0.00    -0.040 C 
HETATM   58  H   LIG     1      -9.978  10.493  63.893  1.00  0.00     0.034 H 
HETATM   59  H   LIG     1      -9.670  12.113  63.317  1.00  0.00     0.034 H 
HETATM   60  C   LIG     1     -12.486  12.914  64.172  1.00  0.00     0.035 C 
HETATM   61  H   LIG     1     -12.282  10.790  63.962  1.00  0.00     0.036 H 
HETATM   62  H   LIG     1     -11.792  11.691  62.538  1.00  0.00     0.036 H 
HETATM   63  C   LIG     1     -12.028  13.395  65.543  1.00  0.00    -0.040 C 
HETATM   64  H   LIG     1     -13.559  12.682  64.227  1.00  0.00     0.082 H 
HETATM   65  C   LIG     1     -10.512  13.389  65.716  1.00  0.00    -0.051 C 
HETATM   66  H   LIG     1     -12.480  12.773  66.323  1.00  0.00     0.036 H 
HETATM   67  H   LIG     1     -12.382  14.425  65.704  1.00  0.00     0.036 H 
HETATM   68  H   LIG     1     -10.264  13.753  66.717  1.00  0.00     0.034 H 
HETATM   69  H   LIG     1     -10.074  14.111  65.013  1.00  0.00     0.034 H 
HETATM   70  H   LIG     1      -8.801  12.147  65.448  1.00  0.00     0.054 H 
BRANCH  60  71
HETATM   71  O   LIG     1     -12.349  14.002  63.257  1.00  0.00    -0.396 OA
HETATM   72  H   LIG     1     -11.799  13.680  62.521  1.00  0.00     0.210 HD
ENDBRANCH  60  71
ENDBRANCH  52  55
ENDBRANCH  48  51
ENDBRANCH  45  48
ENDBRANCH   3  45
TORSDOF 11
ENDMDL
MODEL 2
REMARK VINA RESULT:      -7.9      3.800      4.551
REMARK  11 active torsions:
REMARK  status: ('A' for Active; 'I' for Inactive)
REMARK    1  A    between atoms: N_1  and  S_2 
REMARK    2  A    between atoms: S_2  and  C_5 
REMARK    3  A    between atoms: C_8  and  C_9 
REMARK    4  A    between atoms: C_9  and  C_10 
REMARK    5  A    between atoms: C_14  and  N_15 
REMARK       I    between atoms: N_15  and  C_16 
REMARK       I    between atoms: C_16  and  N_18 
REMARK    6  A    between atoms: N_18  and  C_19 
REMARK    7  A    between atoms: C_21  and  C_22 
REMARK    8  A    between atoms: C_22  and  C_23 
REMARK    9  A    between atoms: C_23  and  N_24 
REMARK       I    between atoms: N_24  and  C_25 
REMARK   10  A    between atoms: C_25  and  C_27 
REMARK   11  A    between atoms: C_30  and  O_31 
ROOT
HETATM    1  C   LIG     1     -12.316  14.132  69.737  1.00  0.00     0.054 A 
HETATM    2  C   LIG     1     -11.862  12.894  69.278  1.00  0.00    -0.048 A 
HETATM    3  C   LIG     1     -12.042  11.741  70.049  1.00  0.00    -0.037 A 
HETATM    4  C   LIG     1     -12.702  11.891  71.266  1.00  0.00     0.008 A 
HETATM    5  N   LIG     1     -13.164  13.071  71.739  1.00  0.00    -0.270 NA
HETATM    6  C   LIG     1     -12.954  14.169  70.970  1.00  0.00     0.028 A 
HETATM    7  H   LIG     1     -11.317  12.835  68.340  1.00  0.00     0.087 H 
HETATM    8  H   LIG     1     -12.877  11.043  71.923  1.00  0.00     0.115 H 
HETATM    9  H   LIG     1     -13.364  15.089  71.377  1.00  0.00     0.118 H 
ENDROOT
BRANCH   1  10
HETATM   10  N   LIG     1     -12.147  15.253  68.903  1.00  0.00    -0.307 N 
HETATM   11  C   LIG     1     -11.085  16.140  69.003  1.00  0.00     0.325 C 
HETATM   12  N   LIG     1     -11.231  17.144  68.064  1.00  0.00    -0.309 N 
HETATM   13  O   LIG     1     -10.167  16.040  69.803  1.00  0.00    -0.247 OA
HETATM   14  H   LIG     1     -12.185  17.470  68.013  1.00  0.00     0.170 HD
HETATM   15  H   LIG     1     -12.482  15.161  67.956  1.00  0.00     0.170 HD
BRANCH  12  16
HETATM   16  C   LIG     1     -10.242  18.112  67.777  1.00  0.00     0.036 A 
HETATM   17  C   LIG     1     -10.674  19.422  67.573  1.00  0.00    -0.057 A 
HETATM   18  C   LIG     1      -9.761  20.410  67.223  1.00  0.00    -0.080 A 
HETATM   19  H   LIG     1     -11.712  19.700  67.724  1.00  0.00     0.086 H 
HETATM   20  C   LIG     1      -8.422  20.083  67.013  1.00  0.00    -0.076 A 
HETATM   21  H   LIG     1     -10.087  21.438  67.097  1.00  0.00     0.083 H 
HETATM   22  C   LIG     1      -7.954  18.772  67.190  1.00  0.00    -0.052 A 
HETATM   23  H   LIG     1      -7.754  20.881  66.700  1.00  0.00     0.084 H 
HETATM   24  C   LIG     1      -8.885  17.788  67.600  1.00  0.00    -0.051 A 
HETATM   25  H   LIG     1      -8.556  16.761  67.734  1.00  0.00     0.087 H 
BRANCH  22  26
HETATM   26  C   LIG     1      -6.499  18.386  66.921  1.00  0.00    -0.017 C 
HETATM   27  H   LIG     1      -6.424  18.007  65.894  1.00  0.00     0.047 H 
HETATM   28  H   LIG     1      -5.888  19.296  66.966  1.00  0.00     0.047 H 
BRANCH  26  29
HETATM   29  C   LIG     1      -5.875  17.349  67.853  1.00  0.00    -0.054 A 
HETATM   30  C   LIG     1      -5.673  16.030  67.411  1.00  0.00    -0.075 A 
HETATM   31  C   LIG     1      -5.254  15.032  68.299  1.00  0.00    -0.060 A 
HETATM   32  H   LIG     1      -5.884  15.770  66.374  1.00  0.00     0.084 H 
HETATM   33  C   LIG     1      -5.021  15.356  69.640  1.00  0.00     0.074 A 
HETATM   34  H   LIG     1      -5.159  14.017  67.922  1.00  0.00     0.085 H 
HETATM   35  C   LIG     1      -5.150  16.671  70.079  1.00  0.00    -0.060 A 
HETATM   36  C   LIG     1      -5.572  17.662  69.189  1.00  0.00    -0.075 A 
HETATM   37  H   LIG     1      -4.953  16.913  71.117  1.00  0.00     0.085 H 
HETATM   38  H   LIG     1      -5.701  18.676  69.557  1.00  0.00     0.084 H 
BRANCH  33  39
HETATM   39  S   LIG     1      -4.676  14.093  70.841  1.00  0.00     0.239 S 
HETATM   40  O   LIG     1      -3.946  13.043  70.184  1.00  0.00    -0.206 OA
HETATM   41  O   LIG     1      -5.902  13.817  71.570  1.00  0.00    -0.206 OA
BRANCH  39  42
HETATM   42  N   LIG     1      -3.652  14.867  71.942  1.00  0.00    -0.225 NA
HETATM   43  H   LIG     1      -3.387  14.302  72.749  1.00  0.00     0.136 HD
HETATM   44  H   LIG     1      -4.018  15.799  72.192  1.00  0.00     0.136 HD
ENDBRANCH  39  42
ENDBRANCH  33  39
ENDBRANCH  26  29
ENDBRANCH  22  26
ENDBRANCH  12  16
ENDBRANCH   1  10
BRANCH   3  45
HETATM   45  C   LIG     1     -11.484  10.408  69.618  1.00  0.00    -0.025 C 
HETATM   46  H   LIG     1     -12.185   9.912  68.934  1.00  0.00     0.042 H 
HETATM   47  H   LIG     1     -11.438   9.768  70.512  1.00  0.00     0.042 H 
BRANCH  45  48
HETATM   48  C   LIG     1     -10.086  10.453  68.980  1.00  0.00    -0.001 C 
HETATM   49  H   LIG     1      -9.852   9.458  68.586  1.00  0.00     0.064 H 
HETATM   50  H   LIG     1      -9.326  10.694  69.730  1.00  0.00     0.064 H 
BRANCH  48  51
HETATM   51  N   LIG     1      -9.962  11.384  67.862  1.00  0.00    -0.360 N 
HETATM   52  C   LIG     1     -10.133  10.965  66.556  1.00  0.00     0.221 C 
HETATM   53  O   LIG     1     -10.364   9.789  66.275  1.00  0.00    -0.273 OA
HETATM   54  H   LIG     1     -10.041  12.373  68.062  1.00  0.00     0.162 HD
BRANCH  52  55
HETATM   55  C   LIG     1      -9.896  12.045  65.478  1.00  0.00     0.024 C 
HETATM   56  C   LIG     1     -10.269  11.580  64.062  1.00  0.00    -0.051 C 
HETATM   57  C   LIG     1     -11.741  11.726  63.655  1.00  0.00    -0.040 C 
HETATM   58  H   LIG     1      -9.972  10.533  63.912  1.00  0.00     0.034 H 
HETATM   59  H   LIG     1      -9.665  12.158  63.351  1.00  0.00     0.034 H 
HETATM   60  C   LIG     1     -12.486  12.947  64.201  1.00  0.00     0.035 C 
HETATM   61  H   LIG     1     -12.277  10.826  63.975  1.00  0.00     0.036 H 
HETATM   62  H   LIG     1     -11.784  11.740  62.560  1.00  0.00     0.036 H 
HETATM   63  C   LIG     1     -12.034  13.418  65.578  1.00  0.00    -0.040 C 
HETATM   64  H   LIG     1     -13.559  12.714  64.250  1.00  0.00     0.082 H 
HETATM   65  C   LIG     1     -10.519  13.413  65.757  1.00  0.00    -0.051 C 
HETATM   66  H   LIG     1     -12.488  12.789  66.351  1.00  0.00     0.036 H 
HETATM   67  H   LIG     1     -12.390  14.446  65.746  1.00  0.00     0.036 H 
HETATM   68  H   LIG     1     -10.275  13.769  66.762  1.00  0.00     0.034 H 
HETATM   69  H   LIG     1     -10.079  14.142  65.062  1.00  0.00     0.034 H 
HETATM   70  H   LIG     1      -8.804  12.176  65.486  1.00  0.00     0.054 H 
BRANCH  60  71
HETATM   71  O   LIG     1     -12.347  14.043  63.296  1.00  0.00    -0.396 OA
HETATM   72  H   LIG     1     -11.794  13.728  62.559  1.00  0.00     0.210 HD
ENDBRANCH  60  71
ENDBRANCH  52  55
ENDBRANCH  48  51
ENDBRANCH  45  48
ENDBRANCH   3  45
TORSDOF 11
ENDMDL
MODEL 3
REMARK VINA RESULT:      -7.8      3.799      6.764
REMARK  11 active torsions:
REMARK  status: ('A' for Active; 'I' for Inactive)
REMARK    1  A    between atoms: N_1  and  S_2 
REMARK    2  A    between atoms: S_2  and  C_5 
REMARK    3  A    between atoms: C_8  and  C_9 
REMARK    4  A    between atoms: C_9  and  C_10 
REMARK    5  A    between atoms: C_14  and  N_15 
REMARK       I    between atoms: N_15  and  C_16 
REMARK       I    between atoms: C_16  and  N_18 
REMARK    6  A    between atoms: N_18  and  C_19 
REMARK    7  A    between atoms: C_21  and  C_22 
REMARK    8  A    between atoms: C_22  and  C_23 
REMARK    9  A    between atoms: C_23  and  N_24 
REMARK       I    between atoms: N_24  and  C_25 
REMARK   10  A    between atoms: C_25  and  C_27 
REMARK   11  A    between atoms: C_30  and  O_31 
ROOT
HETATM    1  C   LIG     1     -10.484   8.778  66.797  1.00  0.00     0.054 A 
HETATM    2  C   LIG     1     -10.771   7.530  67.354  1.00  0.00    -0.048 A 
HETATM    3  C   LIG     1      -9.963   6.423  67.072  1.00  0.00    -0.037 A 
HETATM    4  C   LIG     1      -8.868   6.636  66.240  1.00  0.00     0.008 A 
HETATM    5  N   LIG     1      -8.552   7.831  65.690  1.00  0.00    -0.270 NA
HETATM    6  C   LIG     1      -9.370   8.876  65.972  1.00  0.00     0.028 A 
HETATM    7  H   LIG     1     -11.661   7.406  67.965  1.00  0.00     0.087 H 
HETATM    8  H   LIG     1      -8.194   5.825  65.972  1.00  0.00     0.115 H 
HETATM    9  H   LIG     1      -9.064   9.819  65.530  1.00  0.00     0.118 H 
ENDROOT
BRANCH   1  10
HETATM   10  N   LIG     1     -11.305   9.867  67.145  1.00  0.00    -0.307 N 
HETATM   11  C   LIG     1     -10.869  10.962  67.876  1.00  0.00     0.325 C 
HETATM   12  N   LIG     1     -11.923  11.834  68.075  1.00  0.00    -0.309 N 
HETATM   13  O   LIG     1      -9.726  11.121  68.278  1.00  0.00    -0.247 OA
HETATM   14  H   LIG     1     -12.771  11.343  68.318  1.00  0.00     0.170 HD
HETATM   15  H   LIG     1     -12.031  10.108  66.489  1.00  0.00     0.170 HD
BRANCH  12  16
HETATM   16  C   LIG     1     -11.789  13.128  68.628  1.00  0.00     0.036 A 
HETATM   17  C   LIG     1     -12.054  13.268  69.990  1.00  0.00    -0.057 A 
HETATM   18  C   LIG     1     -12.005  14.524  70.584  1.00  0.00    -0.080 A 
HETATM   19  H   LIG     1     -12.259  12.403  70.614  1.00  0.00     0.086 H 
HETATM   20  C   LIG     1     -11.752  15.655  69.808  1.00  0.00    -0.076 A 
HETATM   21  H   LIG     1     -12.176  14.633  71.650  1.00  0.00     0.083 H 
HETATM   22  C   LIG     1     -11.500  15.555  68.431  1.00  0.00    -0.052 A 
HETATM   23  H   LIG     1     -11.765  16.620  70.309  1.00  0.00     0.084 H 
HETATM   24  C   LIG     1     -11.500  14.264  67.852  1.00  0.00    -0.051 A 
HETATM   25  H   LIG     1     -11.319  14.155  66.786  1.00  0.00     0.087 H 
BRANCH  22  26
HETATM   26  C   LIG     1     -11.267  16.788  67.558  1.00  0.00    -0.017 C 
HETATM   27  H   LIG     1     -11.311  16.482  66.506  1.00  0.00     0.047 H 
HETATM   28  H   LIG     1     -12.097  17.487  67.719  1.00  0.00     0.047 H 
BRANCH  26  29
HETATM   29  C   LIG     1      -9.959  17.549  67.773  1.00  0.00    -0.054 A 
HETATM   30  C   LIG     1      -9.925  18.676  68.612  1.00  0.00    -0.075 A 
HETATM   31  C   LIG     1      -8.779  19.476  68.693  1.00  0.00    -0.060 A 
HETATM   32  H   LIG     1     -10.814  18.956  69.176  1.00  0.00     0.084 H 
HETATM   33  C   LIG     1      -7.650  19.141  67.938  1.00  0.00     0.074 A 
HETATM   34  H   LIG     1      -8.817  20.365  69.317  1.00  0.00     0.085 H 
HETATM   35  C   LIG     1      -7.642  17.990  67.154  1.00  0.00    -0.060 A 
HETATM   36  C   LIG     1      -8.791  17.197  67.075  1.00  0.00    -0.075 A 
HETATM   37  H   LIG     1      -6.757  17.732  66.585  1.00  0.00     0.085 H 
HETATM   38  H   LIG     1      -8.779  16.322  66.432  1.00  0.00     0.084 H 
BRANCH  33  39
HETATM   39  S   LIG     1      -6.245  20.227  67.858  1.00  0.00     0.239 S 
HETATM   40  O   LIG     1      -5.219  19.569  67.094  1.00  0.00    -0.206 OA
HETATM   41  O   LIG     1      -5.984  20.725  69.198  1.00  0.00    -0.206 OA
BRANCH  39  42
HETATM   42  N   LIG     1      -6.821  21.551  66.980  1.00  0.00    -0.225 NA
HETATM   43  H   LIG     1      -7.540  22.099  67.454  1.00  0.00     0.136 HD
HETATM   44  H   LIG     1      -7.079  21.273  66.021  1.00  0.00     0.136 HD
ENDBRANCH  39  42
ENDBRANCH  33  39
ENDBRANCH  26  29
ENDBRANCH  22  26
ENDBRANCH  12  16
ENDBRANCH   1  10
BRANCH   3  45
HETATM   45  C   LIG     1     -10.301   5.047  67.589  1.00  0.00    -0.025 C 
HETATM   46  H   LIG     1     -10.122   4.299  66.805  1.00  0.00     0.042 H 
HETATM   47  H   LIG     1     -11.383   5.027  67.779  1.00  0.00     0.042 H 
BRANCH  45  48
HETATM   48  C   LIG     1      -9.572   4.629  68.876  1.00  0.00    -0.001 C 
HETATM   49  H   LIG     1      -8.559   5.046  68.852  1.00  0.00     0.064 H 
HETATM   50  H   LIG     1      -9.475   3.540  68.929  1.00  0.00     0.064 H 
BRANCH  48  51
HETATM   51  N   LIG     1     -10.192   5.112  70.106  1.00  0.00    -0.360 N 
HETATM   52  C   LIG     1      -9.761   6.274  70.720  1.00  0.00     0.221 C 
HETATM   53  O   LIG     1      -8.820   6.932  70.278  1.00  0.00    -0.273 OA
HETATM   54  H   LIG     1     -11.112   4.759  70.339  1.00  0.00     0.162 HD
BRANCH  52  55
HETATM   55  C   LIG     1     -10.461   6.616  72.053  1.00  0.00     0.024 C 
HETATM   56  C   LIG     1     -10.324   8.095  72.447  1.00  0.00    -0.051 C 
HETATM   57  C   LIG     1     -11.350   9.065  71.845  1.00  0.00    -0.040 C 
HETATM   58  H   LIG     1      -9.318   8.464  72.206  1.00  0.00     0.034 H 
HETATM   59  H   LIG     1     -10.404   8.158  73.540  1.00  0.00     0.034 H 
HETATM   60  C   LIG     1     -12.771   8.529  71.652  1.00  0.00     0.035 C 
HETATM   61  H   LIG     1     -10.974   9.401  70.872  1.00  0.00     0.036 H 
HETATM   62  H   LIG     1     -11.385   9.952  72.488  1.00  0.00     0.036 H 
HETATM   63  C   LIG     1     -12.863   7.042  71.334  1.00  0.00    -0.040 C 
HETATM   64  H   LIG     1     -13.251   9.087  70.836  1.00  0.00     0.082 H 
HETATM   65  C   LIG     1     -11.922   6.180  72.170  1.00  0.00    -0.051 C 
HETATM   66  H   LIG     1     -12.651   6.877  70.272  1.00  0.00     0.036 H 
HETATM   67  H   LIG     1     -13.891   6.693  71.517  1.00  0.00     0.036 H 
HETATM   68  H   LIG     1     -12.052   5.131  71.891  1.00  0.00     0.034 H 
HETATM   69  H   LIG     1     -12.221   6.252  73.225  1.00  0.00     0.034 H 
HETATM   70  H   LIG     1      -9.889   6.042  72.795  1.00  0.00     0.054 H 
BRANCH  60  71
HETATM   71  O   LIG     1     -13.544   8.775  72.827  1.00  0.00    -0.396 OA
HETATM   72  H   LIG     1     -13.041   8.406  73.575  1.00  0.00     0.210 HD
ENDBRANCH  60  71
ENDBRANCH  52  55
ENDBRANCH  48  51
ENDBRANCH  45  48
ENDBRANCH   3  45
TORSDOF 11
ENDMDL
MODEL 4
REMARK VINA RESULT:      -7.8      4.044      6.542
REMARK  11 active torsions:
REMARK  status: ('A' for Active; 'I' for Inactive)
REMARK    1  A    between atoms: N_1  and  S_2 
REMARK    2  A    between atoms: S_2  and  C_5 
REMARK    3  A    between atoms: C_8  and  C_9 
REMARK    4  A    between atoms: C_9  and  C_10 
REMARK    5  A    between atoms: C_14  and  N_15 
REMARK       I    between atoms: N_15  and  C_16 
REMARK       I    between atoms: C_16  and  N_18 
REMARK    6  A    between atoms: N_18  and  C_19 
REMARK    7  A    between atoms: C_21  and  C_22 
REMARK    8  A    between atoms: C_22  and  C_23 
REMARK    9  A    between atoms: C_23  and  N_24 
REMARK       I    between atoms: N_24  and  C_25 
REMARK   10  A    between atoms: C_25  and  C_27 
REMARK   11  A    between atoms: C_30  and  O_31 
ROOT
HETATM    1  C   LIG     1     -11.721   7.215  71.340  1.00  0.00     0.054 A 
HETATM    2  C   LIG     1     -11.516   6.714  70.053  1.00  0.00    -0.048 A 
HETATM    3  C   LIG     1     -10.786   5.536  69.857  1.00  0.00    -0.037 A 
HETATM    4  C   LIG     1     -10.304   4.895  70.995  1.00  0.00     0.008 A 
HETATM    5  N   LIG     1     -10.490   5.345  72.257  1.00  0.00    -0.270 NA
HETATM    6  C   LIG     1     -11.187   6.500  72.404  1.00  0.00     0.028 A 
HETATM    7  H   LIG     1     -11.878   7.272  69.194  1.00  0.00     0.087 H 
HETATM    8  H   LIG     1      -9.725   3.977  70.925  1.00  0.00     0.115 H 
HETATM    9  H   LIG     1     -11.335   6.808  73.435  1.00  0.00     0.118 H 
ENDROOT
BRANCH   1  10
HETATM   10  N   LIG     1     -12.497   8.380  71.484  1.00  0.00    -0.307 N 
HETATM   11  C   LIG     1     -12.005   9.665  71.310  1.00  0.00     0.325 C 
HETATM   12  N   LIG     1     -13.010  10.583  71.554  1.00  0.00    -0.309 N 
HETATM   13  O   LIG     1     -10.856   9.933  70.991  1.00  0.00    -0.247 OA
HETATM   14  H   LIG     1     -13.552  10.333  72.368  1.00  0.00     0.170 HD
HETATM   15  H   LIG     1     -13.470   8.304  71.228  1.00  0.00     0.170 HD
BRANCH  12  16
HETATM   16  C   LIG     1     -12.899  11.968  71.300  1.00  0.00     0.036 A 
HETATM   17  C   LIG     1     -13.475  12.834  72.229  1.00  0.00    -0.057 A 
HETATM   18  C   LIG     1     -13.458  14.206  72.006  1.00  0.00    -0.080 A 
HETATM   19  H   LIG     1     -13.904  12.460  73.153  1.00  0.00     0.086 H 
HETATM   20  C   LIG     1     -12.921  14.717  70.825  1.00  0.00    -0.076 A 
HETATM   21  H   LIG     1     -13.875  14.886  72.743  1.00  0.00     0.083 H 
HETATM   22  C   LIG     1     -12.350  13.875  69.858  1.00  0.00    -0.052 A 
HETATM   23  H   LIG     1     -12.968  15.793  70.677  1.00  0.00     0.084 H 
HETATM   24  C   LIG     1     -12.325  12.486  70.124  1.00  0.00    -0.051 A 
HETATM   25  H   LIG     1     -11.900  11.806  69.390  1.00  0.00     0.087 H 
BRANCH  22  26
HETATM   26  C   LIG     1     -11.799  14.413  68.538  1.00  0.00    -0.017 C 
HETATM   27  H   LIG     1     -11.357  13.579  67.980  1.00  0.00     0.047 H 
HETATM   28  H   LIG     1     -12.640  14.784  67.939  1.00  0.00     0.047 H 
BRANCH  26  29
HETATM   29  C   LIG     1     -10.754  15.525  68.627  1.00  0.00    -0.054 A 
HETATM   30  C   LIG     1     -11.101  16.849  68.309  1.00  0.00    -0.075 A 
HETATM   31  C   LIG     1     -10.122  17.848  68.231  1.00  0.00    -0.060 A 
HETATM   32  H   LIG     1     -12.137  17.096  68.080  1.00  0.00     0.084 H 
HETATM   33  C   LIG     1      -8.785  17.525  68.485  1.00  0.00     0.074 A 
HETATM   34  H   LIG     1     -10.431  18.846  67.932  1.00  0.00     0.085 H 
HETATM   35  C   LIG     1      -8.434  16.233  68.868  1.00  0.00    -0.060 A 
HETATM   36  C   LIG     1      -9.415  15.240  68.942  1.00  0.00    -0.075 A 
HETATM   37  H   LIG     1      -7.397  15.997  69.077  1.00  0.00     0.085 H 
HETATM   38  H   LIG     1      -9.117  14.229  69.209  1.00  0.00     0.084 H 
BRANCH  33  39
HETATM   39  S   LIG     1      -7.488  18.707  68.211  1.00  0.00     0.239 S 
HETATM   40  O   LIG     1      -6.725  18.818  69.425  1.00  0.00    -0.206 OA
HETATM   41  O   LIG     1      -8.072  19.878  67.578  1.00  0.00    -0.206 OA
BRANCH  39  42
HETATM   42  N   LIG     1      -6.531  17.974  67.026  1.00  0.00    -0.225 NA
HETATM   43  H   LIG     1      -5.682  18.486  66.785  1.00  0.00     0.136 HD
HETATM   44  H   LIG     1      -7.098  17.706  66.207  1.00  0.00     0.136 HD
ENDBRANCH  39  42
ENDBRANCH  33  39
ENDBRANCH  26  29
ENDBRANCH  22  26
ENDBRANCH  12  16
ENDBRANCH   1  10
BRANCH   3  45
HETATM   45  C   LIG     1     -10.475   5.021  68.474  1.00  0.00    -0.025 C 
HETATM   46  H   LIG     1     -11.400   4.935  67.890  1.00  0.00     0.042 H 
HETATM   47  H   LIG     1     -10.096   3.995  68.586  1.00  0.00     0.042 H 
BRANCH  45  48
HETATM   48  C   LIG     1      -9.441   5.839  67.684  1.00  0.00    -0.001 C 
HETATM   49  H   LIG     1      -8.994   5.190  66.923  1.00  0.00     0.064 H 
HETATM   50  H   LIG     1      -8.632   6.176  68.339  1.00  0.00     0.064 H 
BRANCH  48  51
HETATM   51  N   LIG     1      -9.993   6.991  66.977  1.00  0.00    -0.360 N 
HETATM   52  C   LIG     1      -9.700   8.283  67.371  1.00  0.00     0.221 C 
HETATM   53  O   LIG     1      -8.991   8.521  68.348  1.00  0.00    -0.273 OA
HETATM   54  H   LIG     1     -10.345   6.843  66.040  1.00  0.00     0.162 HD
BRANCH  52  55
HETATM   55  C   LIG     1     -10.419   9.395  66.576  1.00  0.00     0.024 C 
HETATM   56  C   LIG     1     -10.825  10.595  67.446  1.00  0.00    -0.051 C 
HETATM   57  C   LIG     1      -9.756  11.672  67.676  1.00  0.00    -0.040 C 
HETATM   58  H   LIG     1     -11.186  10.254  68.426  1.00  0.00     0.034 H 
HETATM   59  H   LIG     1     -11.689  11.076  66.969  1.00  0.00     0.034 H 
HETATM   60  C   LIG     1      -8.804  11.953  66.510  1.00  0.00     0.035 C 
HETATM   61  H   LIG     1      -9.158  11.382  68.546  1.00  0.00     0.036 H 
HETATM   62  H   LIG     1     -10.272  12.600  67.949  1.00  0.00     0.036 H 
HETATM   63  C   LIG     1      -8.485  10.750  65.631  1.00  0.00    -0.040 C 
HETATM   64  H   LIG     1      -7.860  12.347  66.912  1.00  0.00     0.082 H 
HETATM   65  C   LIG     1      -9.702   9.885  65.318  1.00  0.00    -0.051 C 
HETATM   66  H   LIG     1      -7.721  10.132  66.113  1.00  0.00     0.036 H 
HETATM   67  H   LIG     1      -8.065  11.098  64.676  1.00  0.00     0.036 H 
HETATM   68  H   LIG     1      -9.396   9.051  64.680  1.00  0.00     0.034 H 
HETATM   69  H   LIG     1     -10.412  10.476  64.723  1.00  0.00     0.034 H 
HETATM   70  H   LIG     1     -11.353   8.914  66.254  1.00  0.00     0.054 H 
BRANCH  60  71
HETATM   71  O   LIG     1      -9.350  12.974  65.675  1.00  0.00    -0.396 OA
HETATM   72  H   LIG     1     -10.076  13.387  66.176  1.00  0.00     0.210 HD
ENDBRANCH  60  71
ENDBRANCH  52  55
ENDBRANCH  48  51
ENDBRANCH  45  48
ENDBRANCH   3  45
TORSDOF 11
ENDMDL
MODEL 5
REMARK VINA RESULT:      -7.5      4.373      7.673
REMARK  11 active torsions:
REMARK  status: ('A' for Active; 'I' for Inactive)
REMARK    1  A    between atoms: N_1  and  S_2 
REMARK    2  A    between atoms: S_2  and  C_5 
REMARK    3  A    between atoms: C_8  and  C_9 
REMARK    4  A    between atoms: C_9  and  C_10 
REMARK    5  A    between atoms: C_14  and  N_15 
REMARK       I    between atoms: N_15  and  C_16 
REMARK       I    between atoms: C_16  and  N_18 
REMARK    6  A    between atoms: N_18  and  C_19 
REMARK    7  A    between atoms: C_21  and  C_22 
REMARK    8  A    between atoms: C_22  and  C_23 
REMARK    9  A    between atoms: C_23  and  N_24 
REMARK       I    between atoms: N_24  and  C_25 
REMARK   10  A    between atoms: C_25  and  C_27 
REMARK   11  A    between atoms: C_30  and  O_31 
ROOT
HETATM    1  C   LIG     1      -9.130   6.615  68.847  1.00  0.00     0.054 A 
HETATM    2  C   LIG     1      -9.663   6.996  70.080  1.00  0.00    -0.048 A 
HETATM    3  C   LIG     1      -9.967   6.034  71.051  1.00  0.00    -0.037 A 
HETATM    4  C   LIG     1      -9.695   4.707  70.731  1.00  0.00     0.008 A 
HETATM    5  N   LIG     1      -9.170   4.301  69.552  1.00  0.00    -0.270 NA
HETATM    6  C   LIG     1      -8.906   5.262  68.631  1.00  0.00     0.028 A 
HETATM    7  H   LIG     1      -9.896   8.041  70.267  1.00  0.00     0.087 H 
HETATM    8  H   LIG     1      -9.906   3.902  71.431  1.00  0.00     0.115 H 
HETATM    9  H   LIG     1      -8.462   4.893  67.711  1.00  0.00     0.118 H 
ENDROOT
BRANCH   1  10
HETATM   10  N   LIG     1      -8.804   7.626  67.924  1.00  0.00    -0.307 N 
HETATM   11  C   LIG     1      -9.718   8.209  67.059  1.00  0.00     0.325 C 
HETATM   12  N   LIG     1      -9.074   9.139  66.264  1.00  0.00    -0.309 N 
HETATM   13  O   LIG     1     -10.908   7.934  67.014  1.00  0.00    -0.247 OA
HETATM   14  H   LIG     1      -8.184   8.795  65.935  1.00  0.00     0.170 HD
HETATM   15  H   LIG     1      -8.074   8.266  68.199  1.00  0.00     0.170 HD
BRANCH  12  16
HETATM   16  C   LIG     1      -9.737  10.037  65.397  1.00  0.00     0.036 A 
HETATM   17  C   LIG     1      -9.404   9.978  64.044  1.00  0.00    -0.057 A 
HETATM   18  C   LIG     1      -9.971  10.876  63.147  1.00  0.00    -0.080 A 
HETATM   19  H   LIG     1      -8.737   9.211  63.664  1.00  0.00     0.086 H 
HETATM   20  C   LIG     1     -10.826  11.878  63.606  1.00  0.00    -0.076 A 
HETATM   21  H   LIG     1      -9.741  10.812  62.088  1.00  0.00     0.083 H 
HETATM   22  C   LIG     1     -11.169  11.980  64.963  1.00  0.00    -0.052 A 
HETATM   23  H   LIG     1     -11.211  12.583  62.874  1.00  0.00     0.084 H 
HETATM   24  C   LIG     1     -10.627  11.025  65.855  1.00  0.00    -0.051 A 
HETATM   25  H   LIG     1     -10.864  11.084  66.914  1.00  0.00     0.087 H 
BRANCH  22  26
HETATM   26  C   LIG     1     -12.067  13.099  65.490  1.00  0.00    -0.017 C 
HETATM   27  H   LIG     1     -12.768  13.385  64.697  1.00  0.00     0.047 H 
HETATM   28  H   LIG     1     -12.671  12.697  66.314  1.00  0.00     0.047 H 
BRANCH  26  29
HETATM   29  C   LIG     1     -11.374  14.367  65.986  1.00  0.00    -0.054 A 
HETATM   30  C   LIG     1     -11.460  14.739  67.338  1.00  0.00    -0.075 A 
HETATM   31  C   LIG     1     -10.969  15.976  67.775  1.00  0.00    -0.060 A 
HETATM   32  H   LIG     1     -11.952  14.077  68.050  1.00  0.00     0.084 H 
HETATM   33  C   LIG     1     -10.374  16.845  66.855  1.00  0.00     0.074 A 
HETATM   34  H   LIG     1     -11.104  16.241  68.820  1.00  0.00     0.085 H 
HETATM   35  C   LIG     1     -10.218  16.464  65.525  1.00  0.00    -0.060 A 
HETATM   36  C   LIG     1     -10.713  15.229  65.094  1.00  0.00    -0.075 A 
HETATM   37  H   LIG     1      -9.742  17.139  64.823  1.00  0.00     0.085 H 
HETATM   38  H   LIG     1     -10.614  14.963  64.045  1.00  0.00     0.084 H 
BRANCH  33  39
HETATM   39  S   LIG     1      -9.911  18.497  67.320  1.00  0.00     0.239 S 
HETATM   40  O   LIG     1      -9.184  18.422  68.558  1.00  0.00    -0.206 OA
HETATM   41  O   LIG     1     -11.082  19.348  67.183  1.00  0.00    -0.206 OA
BRANCH  39  42
HETATM   42  N   LIG     1      -8.853  18.970  66.089  1.00  0.00    -0.225 NA
HETATM   43  H   LIG     1      -7.865  18.818  66.293  1.00  0.00     0.136 HD
HETATM   44  H   LIG     1      -9.067  19.926  65.768  1.00  0.00     0.136 HD
ENDBRANCH  39  42
ENDBRANCH  33  39
ENDBRANCH  26  29
ENDBRANCH  22  26
ENDBRANCH  12  16
ENDBRANCH   1  10
BRANCH   3  45
HETATM   45  C   LIG     1     -10.625   6.409  72.355  1.00  0.00    -0.025 C 
HETATM   46  H   LIG     1     -10.155   5.862  73.182  1.00  0.00     0.042 H 
HETATM   47  H   LIG     1     -11.664   6.050  72.311  1.00  0.00     0.042 H 
BRANCH  45  48
HETATM   48  C   LIG     1     -10.643   7.913  72.676  1.00  0.00    -0.001 C 
HETATM   49  H   LIG     1      -9.695   8.350  72.342  1.00  0.00     0.064 H 
HETATM   50  H   LIG     1     -10.714   8.076  73.756  1.00  0.00     0.064 H 
BRANCH  48  51
HETATM   51  N   LIG     1     -11.705   8.661  72.009  1.00  0.00    -0.360 N 
HETATM   52  C   LIG     1     -11.418   9.622  71.058  1.00  0.00     0.221 C 
HETATM   53  O   LIG     1     -10.261   9.912  70.754  1.00  0.00    -0.273 OA
HETATM   54  H   LIG     1     -12.639   8.273  72.033  1.00  0.00     0.162 HD
BRANCH  52  55
HETATM   55  C   LIG     1     -12.640  10.382  70.497  1.00  0.00     0.024 C 
HETATM   56  C   LIG     1     -13.482  11.061  71.588  1.00  0.00    -0.051 C 
HETATM   57  C   LIG     1     -13.026  12.454  72.043  1.00  0.00    -0.040 C 
HETATM   58  H   LIG     1     -13.555  10.416  72.474  1.00  0.00     0.034 H 
HETATM   59  H   LIG     1     -14.509  11.151  71.210  1.00  0.00     0.034 H 
HETATM   60  C   LIG     1     -12.422  13.363  70.969  1.00  0.00     0.035 C 
HETATM   61  H   LIG     1     -12.288  12.329  72.843  1.00  0.00     0.036 H 
HETATM   62  H   LIG     1     -13.890  12.956  72.494  1.00  0.00     0.036 H 
HETATM   63  C   LIG     1     -11.655  12.641  69.868  1.00  0.00    -0.040 C 
HETATM   64  H   LIG     1     -11.741  14.077  71.453  1.00  0.00     0.082 H 
HETATM   65  C   LIG     1     -12.349  11.375  69.372  1.00  0.00    -0.051 C 
HETATM   66  H   LIG     1     -10.652  12.384  70.223  1.00  0.00     0.036 H 
HETATM   67  H   LIG     1     -11.532  13.316  69.008  1.00  0.00     0.036 H 
HETATM   68  H   LIG     1     -11.745  10.921  68.581  1.00  0.00     0.034 H 
HETATM   69  H   LIG     1     -13.302  11.655  68.902  1.00  0.00     0.034 H 
HETATM   70  H   LIG     1     -13.264   9.583  70.074  1.00  0.00     0.054 H 
BRANCH  60  71
HETATM   71  O   LIG     1     -13.453  14.135  70.353  1.00  0.00    -0.396 OA
HETATM   72  H   LIG     1     -13.165  14.305  69.438  1.00  0.00     0.210 HD
ENDBRANCH  60  71
ENDBRANCH  52  55
ENDBRANCH  48  51
ENDBRANCH  45  48
ENDBRANCH   3  45
TORSDOF 11
ENDMDL
MODEL 6
REMARK VINA RESULT:      -6.9      5.090      9.118
REMARK  11 active torsions:
REMARK  status: ('A' for Active; 'I' for Inactive)
REMARK    1  A    between atoms: N_1  and  S_2 
REMARK    2  A    between atoms: S_2  and  C_5 
REMARK    3  A    between atoms: C_8  and  C_9 
REMARK    4  A    between atoms: C_9  and  C_10 
REMARK    5  A    between atoms: C_14  and  N_15 
REMARK       I    between atoms: N_15  and  C_16 
REMARK       I    between atoms: C_16  and  N_18 
REMARK    6  A    between atoms: N_18  and  C_19 
REMARK    7  A    between atoms: C_21  and  C_22 
REMARK    8  A    between atoms: C_22  and  C_23 
REMARK    9  A    between atoms: C_23  and  N_24 
REMARK       I    between atoms: N_24  and  C_25 
REMARK   10  A    between atoms: C_25  and  C_27 
REMARK   11  A    between atoms: C_30  and  O_31 
ROOT
HETATM    1  C   LIG     1      -9.326   6.605  69.161  1.00  0.00     0.054 A 
HETATM    2  C   LIG     1      -9.974   6.875  70.368  1.00  0.00    -0.048 A 
HETATM    3  C   LIG     1     -10.289   5.838  71.253  1.00  0.00    -0.037 A 
HETATM    4  C   LIG     1      -9.910   4.552  70.879  1.00  0.00     0.008 A 
HETATM    5  N   LIG     1      -9.273   4.253  69.724  1.00  0.00    -0.270 NA
HETATM    6  C   LIG     1      -9.001   5.283  68.884  1.00  0.00     0.028 A 
HETATM    7  H   LIG     1     -10.285   7.891  70.596  1.00  0.00     0.087 H 
HETATM    8  H   LIG     1     -10.121   3.693  71.512  1.00  0.00     0.115 H 
HETATM    9  H   LIG     1      -8.467   5.000  67.982  1.00  0.00     0.118 H 
ENDROOT
BRANCH   1  10
HETATM   10  N   LIG     1      -8.996   7.689  68.326  1.00  0.00    -0.307 N 
HETATM   11  C   LIG     1      -9.838   8.200  67.350  1.00  0.00     0.325 C 
HETATM   12  N   LIG     1      -9.205   9.237  66.689  1.00  0.00    -0.309 N 
HETATM   13  O   LIG     1     -10.965   7.789  67.118  1.00  0.00    -0.247 OA
HETATM   14  H   LIG     1      -8.241   9.016  66.489  1.00  0.00     0.170 HD
HETATM   15  H   LIG     1      -8.399   8.397  68.727  1.00  0.00     0.170 HD
BRANCH  12  16
HETATM   16  C   LIG     1      -9.840  10.089  65.758  1.00  0.00     0.036 A 
HETATM   17  C   LIG     1      -9.496   9.934  64.416  1.00  0.00    -0.057 A 
HETATM   18  C   LIG     1     -10.034  10.783  63.455  1.00  0.00    -0.080 A 
HETATM   19  H   LIG     1      -8.843   9.129  64.093  1.00  0.00     0.086 H 
HETATM   20  C   LIG     1     -10.870  11.831  63.838  1.00  0.00    -0.076 A 
HETATM   21  H   LIG     1      -9.796  10.644  62.405  1.00  0.00     0.083 H 
HETATM   22  C   LIG     1     -11.223  12.031  65.182  1.00  0.00    -0.052 A 
HETATM   23  H   LIG     1     -11.233  12.494  63.057  1.00  0.00     0.084 H 
HETATM   24  C   LIG     1     -10.711  11.124  66.140  1.00  0.00    -0.051 A 
HETATM   25  H   LIG     1     -10.957  11.259  67.191  1.00  0.00     0.087 H 
BRANCH  22  26
HETATM   26  C   LIG     1     -12.101  13.201  65.625  1.00  0.00    -0.017 C 
HETATM   27  H   LIG     1     -12.758  13.478  64.791  1.00  0.00     0.047 H 
HETATM   28  H   LIG     1     -12.752  12.855  66.438  1.00  0.00     0.047 H 
BRANCH  26  29
HETATM   29  C   LIG     1     -11.383  14.464  66.097  1.00  0.00    -0.054 A 
HETATM   30  C   LIG     1     -11.467  14.866  67.441  1.00  0.00    -0.075 A 
HETATM   31  C   LIG     1     -10.951  16.101  67.854  1.00  0.00    -0.060 A 
HETATM   32  H   LIG     1     -11.975  14.230  68.164  1.00  0.00     0.084 H 
HETATM   33  C   LIG     1     -10.333  16.938  66.919  1.00  0.00     0.074 A 
HETATM   34  H   LIG     1     -11.084  16.390  68.893  1.00  0.00     0.085 H 
HETATM   35  C   LIG     1     -10.180  16.525  65.598  1.00  0.00    -0.060 A 
HETATM   36  C   LIG     1     -10.700  15.293  65.190  1.00  0.00    -0.075 A 
HETATM   37  H   LIG     1      -9.687  17.175  64.884  1.00  0.00     0.085 H 
HETATM   38  H   LIG     1     -10.602  15.003  64.148  1.00  0.00     0.084 H 
BRANCH  33  39
HETATM   39  S   LIG     1      -9.837  18.588  67.352  1.00  0.00     0.239 S 
HETATM   40  O   LIG     1      -9.098  18.521  68.584  1.00  0.00    -0.206 OA
HETATM   41  O   LIG     1     -10.994  19.457  67.213  1.00  0.00    -0.206 OA
BRANCH  39  42
HETATM   42  N   LIG     1      -8.784  19.022  66.102  1.00  0.00    -0.225 NA
HETATM   43  H   LIG     1      -7.796  18.857  66.298  1.00  0.00     0.136 HD
HETATM   44  H   LIG     1      -8.984  19.977  65.767  1.00  0.00     0.136 HD
ENDBRANCH  39  42
ENDBRANCH  33  39
ENDBRANCH  26  29
ENDBRANCH  22  26
ENDBRANCH  12  16
ENDBRANCH   1  10
BRANCH   3  45
HETATM   45  C   LIG     1     -11.066   6.091  72.520  1.00  0.00    -0.025 C 
HETATM   46  H   LIG     1     -10.984   5.223  73.188  1.00  0.00     0.042 H 
HETATM   47  H   LIG     1     -12.128   6.156  72.245  1.00  0.00     0.042 H 
BRANCH  45  48
HETATM   48  C   LIG     1     -10.681   7.368  73.286  1.00  0.00    -0.001 C 
HETATM   49  H   LIG     1     -11.530   7.665  73.911  1.00  0.00     0.064 H 
HETATM   50  H   LIG     1     -10.485   8.190  72.591  1.00  0.00     0.064 H 
BRANCH  48  51
HETATM   51  N   LIG     1      -9.537   7.215  74.180  1.00  0.00    -0.360 N 
HETATM   52  C   LIG     1      -8.318   7.799  73.892  1.00  0.00     0.221 C 
HETATM   53  O   LIG     1      -8.132   8.443  72.859  1.00  0.00    -0.273 OA
HETATM   54  H   LIG     1      -9.721   6.934  75.134  1.00  0.00     0.162 HD
BRANCH  52  55
HETATM   55  C   LIG     1      -7.182   7.486  74.891  1.00  0.00     0.024 C 
HETATM   56  C   LIG     1      -5.783   7.773  74.326  1.00  0.00    -0.051 C 
HETATM   57  C   LIG     1      -5.274   9.216  74.447  1.00  0.00    -0.040 C 
HETATM   58  H   LIG     1      -5.727   7.476  73.269  1.00  0.00     0.034 H 
HETATM   59  H   LIG     1      -5.071   7.121  74.849  1.00  0.00     0.034 H 
HETATM   60  C   LIG     1      -5.683   9.983  75.707  1.00  0.00     0.035 C 
HETATM   61  H   LIG     1      -5.623   9.778  73.574  1.00  0.00     0.036 H 
HETATM   62  H   LIG     1      -4.180   9.189  74.382  1.00  0.00     0.036 H 
HETATM   63  C   LIG     1      -7.048   9.616  76.274  1.00  0.00    -0.040 C 
HETATM   64  H   LIG     1      -5.681  11.059  75.482  1.00  0.00     0.082 H 
HETATM   65  C   LIG     1      -7.322   8.115  76.277  1.00  0.00    -0.051 C 
HETATM   66  H   LIG     1      -7.834  10.122  75.704  1.00  0.00     0.036 H 
HETATM   67  H   LIG     1      -7.120   9.973  77.313  1.00  0.00     0.036 H 
HETATM   68  H   LIG     1      -8.313   7.931  76.704  1.00  0.00     0.034 H 
HETATM   69  H   LIG     1      -6.606   7.626  76.953  1.00  0.00     0.034 H 
HETATM   70  H   LIG     1      -7.250   6.396  75.018  1.00  0.00     0.054 H 
BRANCH  60  71
HETATM   71  O   LIG     1      -4.712   9.780  76.734  1.00  0.00    -0.396 OA
HETATM   72  H   LIG     1      -5.186   9.842  77.583  1.00  0.00     0.210 HD
ENDBRANCH  60  71
ENDBRANCH  52  55
ENDBRANCH  48  51
ENDBRANCH  45  48
ENDBRANCH   3  45
TORSDOF 11
ENDMDL
MODEL 7
REMARK VINA RESULT:      -6.5      7.985     12.559
REMARK  11 active torsions:
REMARK  status: ('A' for Active; 'I' for Inactive)
REMARK    1  A    between atoms: N_1  and  S_2 
REMARK    2  A    between atoms: S_2  and  C_5 
REMARK    3  A    between atoms: C_8  and  C_9 
REMARK    4  A    between atoms: C_9  and  C_10 
REMARK    5  A    between atoms: C_14  and  N_15 
REMARK       I    between atoms: N_15  and  C_16 
REMARK       I    between atoms: C_16  and  N_18 
REMARK    6  A    between atoms: N_18  and  C_19 
REMARK    7  A    between atoms: C_21  and  C_22 
REMARK    8  A    between atoms: C_22  and  C_23 
REMARK    9  A    between atoms: C_23  and  N_24 
REMARK       I    between atoms: N_24  and  C_25 
REMARK   10  A    between atoms: C_25  and  C_27 
REMARK   11  A    between atoms: C_30  and  O_31 
ROOT
HETATM    1  C   LIG     1      -5.751   8.466  75.270  1.00  0.00     0.054 A 
HETATM    2  C   LIG     1      -4.380   8.211  75.200  1.00  0.00    -0.048 A 
HETATM    3  C   LIG     1      -3.637   7.996  76.367  1.00  0.00    -0.037 A 
HETATM    4  C   LIG     1      -4.332   8.030  77.573  1.00  0.00     0.008 A 
HETATM    5  N   LIG     1      -5.660   8.264  77.679  1.00  0.00    -0.270 NA
HETATM    6  C   LIG     1      -6.341   8.486  76.527  1.00  0.00     0.028 A 
HETATM    7  H   LIG     1      -3.876   8.235  74.238  1.00  0.00     0.087 H 
HETATM    8  H   LIG     1      -3.825   7.875  78.522  1.00  0.00     0.115 H 
HETATM    9  H   LIG     1      -7.408   8.643  76.658  1.00  0.00     0.118 H 
ENDROOT
BRANCH   1  10
HETATM   10  N   LIG     1      -6.457   8.634  74.064  1.00  0.00    -0.307 N 
HETATM   11  C   LIG     1      -7.612   7.937  73.739  1.00  0.00     0.325 C 
HETATM   12  N   LIG     1      -8.037   8.309  72.477  1.00  0.00    -0.309 N 
HETATM   13  O   LIG     1      -8.160   7.121  74.465  1.00  0.00    -0.247 OA
HETATM   14  H   LIG     1      -7.265   8.379  71.830  1.00  0.00     0.170 HD
HETATM   15  H   LIG     1      -6.441   9.559  73.660  1.00  0.00     0.170 HD
BRANCH  12  16
HETATM   16  C   LIG     1      -9.272   7.923  71.910  1.00  0.00     0.036 A 
HETATM   17  C   LIG     1      -9.265   6.816  71.063  1.00  0.00    -0.057 A 
HETATM   18  C   LIG     1     -10.433   6.422  70.421  1.00  0.00    -0.080 A 
HETATM   19  H   LIG     1      -8.367   6.221  70.924  1.00  0.00     0.086 H 
HETATM   20  C   LIG     1     -11.601   7.169  70.572  1.00  0.00    -0.076 A 
HETATM   21  H   LIG     1     -10.440   5.540  69.787  1.00  0.00     0.083 H 
HETATM   22  C   LIG     1     -11.641   8.300  71.401  1.00  0.00    -0.052 A 
HETATM   23  H   LIG     1     -12.478   6.846  70.018  1.00  0.00     0.084 H 
HETATM   24  C   LIG     1     -10.458   8.656  72.091  1.00  0.00    -0.051 A 
HETATM   25  H   LIG     1     -10.455   9.534  72.732  1.00  0.00     0.087 H 
BRANCH  22  26
HETATM   26  C   LIG     1     -12.900   9.157  71.543  1.00  0.00    -0.017 C 
HETATM   27  H   LIG     1     -13.704   8.694  70.958  1.00  0.00     0.047 H 
HETATM   28  H   LIG     1     -13.218   9.129  72.593  1.00  0.00     0.047 H 
BRANCH  26  29
HETATM   29  C   LIG     1     -12.791  10.621  71.119  1.00  0.00    -0.054 A 
HETATM   30  C   LIG     1     -12.080  10.970  69.958  1.00  0.00    -0.075 A 
HETATM   31  C   LIG     1     -11.835  12.313  69.644  1.00  0.00    -0.060 A 
HETATM   32  H   LIG     1     -11.678  10.188  69.315  1.00  0.00     0.084 H 
HETATM   33  C   LIG     1     -12.316  13.318  70.490  1.00  0.00     0.074 A 
HETATM   34  H   LIG     1     -11.237  12.532  68.763  1.00  0.00     0.085 H 
HETATM   35  C   LIG     1     -13.081  12.992  71.607  1.00  0.00    -0.060 A 
HETATM   36  C   LIG     1     -13.319  11.649  71.917  1.00  0.00    -0.075 A 
HETATM   37  H   LIG     1     -13.461  13.778  72.248  1.00  0.00     0.085 H 
HETATM   38  H   LIG     1     -13.888  11.412  72.811  1.00  0.00     0.084 H 
BRANCH  33  39
HETATM   39  S   LIG     1     -11.869  15.019  70.239  1.00  0.00     0.239 S 
HETATM   40  O   LIG     1     -10.450  15.140  70.445  1.00  0.00    -0.206 OA
HETATM   41  O   LIG     1     -12.811  15.845  70.976  1.00  0.00    -0.206 OA
BRANCH  39  42
HETATM   42  N   LIG     1     -12.211  15.279  68.604  1.00  0.00    -0.225 NA
HETATM   43  H   LIG     1     -12.630  16.185  68.394  1.00  0.00     0.136 HD
HETATM   44  H   LIG     1     -12.729  14.481  68.205  1.00  0.00     0.136 HD
ENDBRANCH  39  42
ENDBRANCH  33  39
ENDBRANCH  26  29
ENDBRANCH  22  26
ENDBRANCH  12  16
ENDBRANCH   1  10
BRANCH   3  45
HETATM   45  C   LIG     1      -2.142   7.806  76.327  1.00  0.00    -0.025 C 
HETATM   46  H   LIG     1      -1.810   7.665  75.290  1.00  0.00     0.042 H 
HETATM   47  H   LIG     1      -1.919   6.861  76.843  1.00  0.00     0.042 H 
BRANCH  45  48
HETATM   48  C   LIG     1      -1.318   8.926  76.984  1.00  0.00    -0.001 C 
HETATM   49  H   LIG     1      -0.330   8.953  76.511  1.00  0.00     0.064 H 
HETATM   50  H   LIG     1      -1.164   8.718  78.048  1.00  0.00     0.064 H 
BRANCH  48  51
HETATM   51  N   LIG     1      -1.888  10.262  76.837  1.00  0.00    -0.360 N 
HETATM   52  C   LIG     1      -2.122  11.068  77.935  1.00  0.00     0.221 C 
HETATM   53  O   LIG     1      -1.893  10.687  79.083  1.00  0.00    -0.273 OA
HETATM   54  H   LIG     1      -1.835  10.697  75.924  1.00  0.00     0.162 HD
BRANCH  52  55
HETATM   55  C   LIG     1      -2.799  12.422  77.629  1.00  0.00     0.024 C 
HETATM   56  C   LIG     1      -3.425  12.481  76.227  1.00  0.00    -0.051 C 
HETATM   57  C   LIG     1      -4.846  11.921  76.083  1.00  0.00    -0.040 C 
HETATM   58  H   LIG     1      -2.780  11.975  75.496  1.00  0.00     0.034 H 
HETATM   59  H   LIG     1      -3.447  13.534  75.915  1.00  0.00     0.034 H 
HETATM   60  C   LIG     1      -5.789  12.128  77.271  1.00  0.00     0.035 C 
HETATM   61  H   LIG     1      -4.773  10.846  75.886  1.00  0.00     0.036 H 
HETATM   62  H   LIG     1      -5.292  12.371  75.188  1.00  0.00     0.036 H 
HETATM   63  C   LIG     1      -5.116  12.133  78.638  1.00  0.00    -0.040 C 
HETATM   64  H   LIG     1      -6.548  11.333  77.263  1.00  0.00     0.082 H 
HETATM   65  C   LIG     1      -3.806  12.914  78.669  1.00  0.00    -0.051 C 
HETATM   66  H   LIG     1      -4.926  11.104  78.961  1.00  0.00     0.036 H 
HETATM   67  H   LIG     1      -5.795  12.585  79.377  1.00  0.00     0.036 H 
HETATM   68  H   LIG     1      -3.390  12.878  79.679  1.00  0.00     0.034 H 
HETATM   69  H   LIG     1      -4.021  13.973  78.468  1.00  0.00     0.034 H 
HETATM   70  H   LIG     1      -1.959  13.131  77.626  1.00  0.00     0.054 H 
BRANCH  60  71
HETATM   71  O   LIG     1      -6.490  13.363  77.123  1.00  0.00    -0.396 OA
HETATM   72  H   LIG     1      -6.997  13.496  77.944  1.00  0.00     0.210 HD
ENDBRANCH  60  71
ENDBRANCH  52  55
ENDBRANCH  48  51
ENDBRANCH  45  48
ENDBRANCH   3  45
TORSDOF 11
ENDMDL
MODEL 8
REMARK VINA RESULT:      -6.2      4.770      9.961
REMARK  11 active torsions:
REMARK  status: ('A' for Active; 'I' for Inactive)
REMARK    1  A    between atoms: N_1  and  S_2 
REMARK    2  A    between atoms: S_2  and  C_5 
REMARK    3  A    between atoms: C_8  and  C_9 
REMARK    4  A    between atoms: C_9  and  C_10 
REMARK    5  A    between atoms: C_14  and  N_15 
REMARK       I    between atoms: N_15  and  C_16 
REMARK       I    between atoms: C_16  and  N_18 
REMARK    6  A    between atoms: N_18  and  C_19 
REMARK    7  A    between atoms: C_21  and  C_22 
REMARK    8  A    between atoms: C_22  and  C_23 
REMARK    9  A    between atoms: C_23  and  N_24 
REMARK       I    between atoms: N_24  and  C_25 
REMARK   10  A    between atoms: C_25  and  C_27 
REMARK   11  A    between atoms: C_30  and  O_31 
ROOT
HETATM    1  C   LIG     1     -13.059  12.077  71.416  1.00  0.00     0.054 A 
HETATM    2  C   LIG     1     -12.292  12.655  70.402  1.00  0.00    -0.048 A 
HETATM    3  C   LIG     1     -12.044  14.032  70.396  1.00  0.00    -0.037 A 
HETATM    4  C   LIG     1     -12.577  14.775  71.445  1.00  0.00     0.008 A 
HETATM    5  N   LIG     1     -13.316  14.249  72.450  1.00  0.00    -0.270 NA
HETATM    6  C   LIG     1     -13.550  12.913  72.411  1.00  0.00     0.028 A 
HETATM    7  H   LIG     1     -11.932  12.039  69.582  1.00  0.00     0.087 H 
HETATM    8  H   LIG     1     -12.431  15.850  71.510  1.00  0.00     0.115 H 
HETATM    9  H   LIG     1     -14.124  12.532  73.249  1.00  0.00     0.118 H 
ENDROOT
BRANCH   1  10
HETATM   10  N   LIG     1     -13.243  10.682  71.397  1.00  0.00    -0.307 N 
HETATM   11  C   LIG     1     -12.234   9.772  71.116  1.00  0.00     0.325 C 
HETATM   12  N   LIG     1     -12.748   8.488  71.147  1.00  0.00    -0.309 N 
HETATM   13  O   LIG     1     -11.073  10.070  70.879  1.00  0.00    -0.247 OA
HETATM   14  H   LIG     1     -13.646   8.436  70.690  1.00  0.00     0.170 HD
HETATM   15  H   LIG     1     -13.926  10.312  72.040  1.00  0.00     0.170 HD
BRANCH  12  16
HETATM   16  C   LIG     1     -11.961   7.317  71.078  1.00  0.00     0.036 A 
HETATM   17  C   LIG     1     -11.885   6.532  72.227  1.00  0.00    -0.057 A 
HETATM   18  C   LIG     1     -11.077   5.401  72.247  1.00  0.00    -0.080 A 
HETATM   19  H   LIG     1     -12.483   6.762  73.104  1.00  0.00     0.086 H 
HETATM   20  C   LIG     1     -10.291   5.083  71.140  1.00  0.00    -0.076 A 
HETATM   21  H   LIG     1     -11.041   4.767  73.128  1.00  0.00     0.083 H 
HETATM   22  C   LIG     1     -10.326   5.861  69.972  1.00  0.00    -0.052 A 
HETATM   23  H   LIG     1      -9.644   4.213  71.217  1.00  0.00     0.084 H 
HETATM   24  C   LIG     1     -11.196   6.977  69.948  1.00  0.00    -0.051 A 
HETATM   25  H   LIG     1     -11.237   7.606  69.062  1.00  0.00     0.087 H 
BRANCH  22  26
HETATM   26  C   LIG     1      -9.439   5.554  68.766  1.00  0.00    -0.017 C 
HETATM   27  H   LIG     1      -8.523   5.065  69.123  1.00  0.00     0.047 H 
HETATM   28  H   LIG     1      -9.959   4.824  68.132  1.00  0.00     0.047 H 
BRANCH  26  29
HETATM   29  C   LIG     1      -9.030   6.737  67.889  1.00  0.00    -0.054 A 
HETATM   30  C   LIG     1      -7.929   7.535  68.246  1.00  0.00    -0.075 A 
HETATM   31  C   LIG     1      -7.641   8.712  67.545  1.00  0.00    -0.060 A 
HETATM   32  H   LIG     1      -7.317   7.258  69.103  1.00  0.00     0.084 H 
HETATM   33  C   LIG     1      -8.450   9.091  66.470  1.00  0.00     0.074 A 
HETATM   34  H   LIG     1      -6.810   9.323  67.889  1.00  0.00     0.085 H 
HETATM   35  C   LIG     1      -9.503   8.277  66.060  1.00  0.00    -0.060 A 
HETATM   36  C   LIG     1      -9.789   7.104  66.765  1.00  0.00    -0.075 A 
HETATM   37  H   LIG     1     -10.115   8.572  65.216  1.00  0.00     0.085 H 
HETATM   38  H   LIG     1     -10.635   6.499  66.453  1.00  0.00     0.084 H 
BRANCH  33  39
HETATM   39  S   LIG     1      -8.242  10.667  65.675  1.00  0.00     0.239 S 
HETATM   40  O   LIG     1      -8.702  11.685  66.581  1.00  0.00    -0.206 OA
HETATM   41  O   LIG     1      -8.771  10.564  64.325  1.00  0.00    -0.206 OA
BRANCH  39  42
HETATM   42  N   LIG     1      -6.566  10.801  65.502  1.00  0.00    -0.225 NA
HETATM   43  H   LIG     1      -6.102  11.336  66.237  1.00  0.00     0.136 HD
HETATM   44  H   LIG     1      -6.317  11.107  64.550  1.00  0.00     0.136 HD
ENDBRANCH  39  42
ENDBRANCH  33  39
ENDBRANCH  26  29
ENDBRANCH  22  26
ENDBRANCH  12  16
ENDBRANCH   1  10
BRANCH   3  45
HETATM   45  C   LIG     1     -11.294  14.694  69.267  1.00  0.00    -0.025 C 
HETATM   46  H   LIG     1     -12.001  15.184  68.585  1.00  0.00     0.042 H 
HETATM   47  H   LIG     1     -10.817  13.897  68.680  1.00  0.00     0.042 H 
BRANCH  45  48
HETATM   48  C   LIG     1     -10.211  15.698  69.695  1.00  0.00    -0.001 C 
HETATM   49  H   LIG     1     -10.368  15.949  70.749  1.00  0.00     0.064 H 
HETATM   50  H   LIG     1     -10.298  16.627  69.123  1.00  0.00     0.064 H 
BRANCH  48  51
HETATM   51  N   LIG     1      -8.845  15.197  69.584  1.00  0.00    -0.360 N 
HETATM   52  C   LIG     1      -7.827  15.989  69.086  1.00  0.00     0.221 C 
HETATM   53  O   LIG     1      -8.031  17.136  68.687  1.00  0.00    -0.273 OA
HETATM   54  H   LIG     1      -8.595  14.386  70.136  1.00  0.00     0.162 HD
BRANCH  52  55
HETATM   55  C   LIG     1      -6.453  15.296  68.957  1.00  0.00     0.024 C 
HETATM   56  C   LIG     1      -5.570  15.904  67.857  1.00  0.00    -0.051 C 
HETATM   57  C   LIG     1      -4.735  17.132  68.244  1.00  0.00    -0.040 C 
HETATM   58  H   LIG     1      -6.176  16.163  66.978  1.00  0.00     0.034 H 
HETATM   59  H   LIG     1      -4.879  15.123  67.514  1.00  0.00     0.034 H 
HETATM   60  C   LIG     1      -4.181  17.163  69.671  1.00  0.00     0.035 C 
HETATM   61  H   LIG     1      -5.349  18.026  68.093  1.00  0.00     0.036 H 
HETATM   62  H   LIG     1      -3.902  17.205  67.534  1.00  0.00     0.036 H 
HETATM   63  C   LIG     1      -5.056  16.487  70.719  1.00  0.00    -0.040 C 
HETATM   64  H   LIG     1      -4.033  18.211  69.969  1.00  0.00     0.082 H 
HETATM   65  C   LIG     1      -5.651  15.161  70.252  1.00  0.00    -0.051 C 
HETATM   66  H   LIG     1      -5.868  17.159  71.013  1.00  0.00     0.036 H 
HETATM   67  H   LIG     1      -4.457  16.288  71.620  1.00  0.00     0.036 H 
HETATM   68  H   LIG     1      -6.256  14.735  71.057  1.00  0.00     0.034 H 
HETATM   69  H   LIG     1      -4.832  14.448  70.079  1.00  0.00     0.034 H 
HETATM   70  H   LIG     1      -6.711  14.281  68.625  1.00  0.00     0.054 H 
BRANCH  60  71
HETATM   71  O   LIG     1      -2.896  16.543  69.705  1.00  0.00    -0.396 OA
HETATM   72  H   LIG     1      -3.007  15.698  70.176  1.00  0.00     0.210 HD
ENDBRANCH  60  71
ENDBRANCH  52  55
ENDBRANCH  48  51
ENDBRANCH  45  48
ENDBRANCH   3  45
TORSDOF 11
ENDMDL
MODEL 9
REMARK VINA RESULT:      -6.1      8.018     12.208
REMARK  11 active torsions:
REMARK  status: ('A' for Active; 'I' for Inactive)
REMARK    1  A    between atoms: N_1  and  S_2 
REMARK    2  A    between atoms: S_2  and  C_5 
REMARK    3  A    between atoms: C_8  and  C_9 
REMARK    4  A    between atoms: C_9  and  C_10 
REMARK    5  A    between atoms: C_14  and  N_15 
REMARK       I    between atoms: N_15  and  C_16 
REMARK       I    between atoms: C_16  and  N_18 
REMARK    6  A    between atoms: N_18  and  C_19 
REMARK    7  A    between atoms: C_21  and  C_22 
REMARK    8  A    between atoms: C_22  and  C_23 
REMARK    9  A    between atoms: C_23  and  N_24 
REMARK       I    between atoms: N_24  and  C_25 
REMARK   10  A    between atoms: C_25  and  C_27 
REMARK   11  A    between atoms: C_30  and  O_31 
ROOT
HETATM    1  C   LIG     1      -5.897   8.368  75.558  1.00  0.00     0.054 A 
HETATM    2  C   LIG     1      -4.558   7.983  75.648  1.00  0.00    -0.048 A 
HETATM    3  C   LIG     1      -3.942   7.843  76.897  1.00  0.00    -0.037 A 
HETATM    4  C   LIG     1      -4.728   8.084  78.020  1.00  0.00     0.008 A 
HETATM    5  N   LIG     1      -6.031   8.448  77.973  1.00  0.00    -0.270 NA
HETATM    6  C   LIG     1      -6.587   8.592  76.743  1.00  0.00     0.028 A 
HETATM    7  H   LIG     1      -3.975   7.846  74.742  1.00  0.00     0.087 H 
HETATM    8  H   LIG     1      -4.322   7.998  79.025  1.00  0.00     0.115 H 
HETATM    9  H   LIG     1      -7.639   8.860  76.754  1.00  0.00     0.118 H 
ENDROOT
BRANCH   1  10
HETATM   10  N   LIG     1      -6.479   8.454  74.279  1.00  0.00    -0.307 N 
HETATM   11  C   LIG     1      -7.732   7.950  73.963  1.00  0.00     0.325 C 
HETATM   12  N   LIG     1      -7.994   8.167  72.623  1.00  0.00    -0.309 N 
HETATM   13  O   LIG     1      -8.482   7.399  74.756  1.00  0.00    -0.247 OA
HETATM   14  H   LIG     1      -7.187   7.969  72.050  1.00  0.00     0.170 HD
HETATM   15  H   LIG     1      -6.246   9.271  73.735  1.00  0.00     0.170 HD
BRANCH  12  16
HETATM   16  C   LIG     1      -9.246   7.936  72.011  1.00  0.00     0.036 A 
HETATM   17  C   LIG     1      -9.475   6.662  71.493  1.00  0.00    -0.057 A 
HETATM   18  C   LIG     1     -10.660   6.386  70.821  1.00  0.00    -0.080 A 
HETATM   19  H   LIG     1      -8.760   5.859  71.641  1.00  0.00     0.086 H 
HETATM   20  C   LIG     1     -11.596   7.398  70.608  1.00  0.00    -0.076 A 
HETATM   21  H   LIG     1     -10.858   5.386  70.446  1.00  0.00     0.083 H 
HETATM   22  C   LIG     1     -11.391   8.697  71.097  1.00  0.00    -0.052 A 
HETATM   23  H   LIG     1     -12.488   7.144  70.041  1.00  0.00     0.084 H 
HETATM   24  C   LIG     1     -10.205   8.948  71.827  1.00  0.00    -0.051 A 
HETATM   25  H   LIG     1     -10.012   9.947  72.210  1.00  0.00     0.087 H 
BRANCH  22  26
HETATM   26  C   LIG     1     -12.384   9.829  70.834  1.00  0.00    -0.017 C 
HETATM   27  H   LIG     1     -13.327   9.390  70.483  1.00  0.00     0.047 H 
HETATM   28  H   LIG     1     -12.602  10.325  71.788  1.00  0.00     0.047 H 
BRANCH  26  29
HETATM   29  C   LIG     1     -11.961  10.899  69.829  1.00  0.00    -0.054 A 
HETATM   30  C   LIG     1     -12.106  12.262  70.143  1.00  0.00    -0.075 A 
HETATM   31  C   LIG     1     -11.875  13.249  69.177  1.00  0.00    -0.060 A 
HETATM   32  H   LIG     1     -12.442  12.554  71.137  1.00  0.00     0.084 H 
HETATM   33  C   LIG     1     -11.482  12.874  67.888  1.00  0.00     0.074 A 
HETATM   34  H   LIG     1     -12.049  14.286  69.452  1.00  0.00     0.085 H 
HETATM   35  C   LIG     1     -11.267  11.533  67.579  1.00  0.00    -0.060 A 
HETATM   36  C   LIG     1     -11.503  10.552  68.547  1.00  0.00    -0.075 A 
HETATM   37  H   LIG     1     -10.949  11.254  66.582  1.00  0.00     0.085 H 
HETATM   38  H   LIG     1     -11.363   9.508  68.279  1.00  0.00     0.084 H 
BRANCH  33  39
HETATM   39  S   LIG     1     -11.365  14.071  66.580  1.00  0.00     0.239 S 
HETATM   40  O   LIG     1     -11.029  15.340  67.169  1.00  0.00    -0.206 OA
HETATM   41  O   LIG     1     -12.531  13.922  65.726  1.00  0.00    -0.206 OA
BRANCH  39  42
HETATM   42  N   LIG     1     -10.052  13.525  65.665  1.00  0.00    -0.225 NA
HETATM   43  H   LIG     1     -10.262  13.343  64.683  1.00  0.00     0.136 HD
HETATM   44  H   LIG     1      -9.573  12.743  66.137  1.00  0.00     0.136 HD
ENDBRANCH  39  42
ENDBRANCH  33  39
ENDBRANCH  26  29
ENDBRANCH  22  26
ENDBRANCH  12  16
ENDBRANCH   1  10
BRANCH   3  45
HETATM   45  C   LIG     1      -2.475   7.515  77.021  1.00  0.00    -0.025 C 
HETATM   46  H   LIG     1      -2.081   7.188  76.050  1.00  0.00     0.042 H 
HETATM   47  H   LIG     1      -2.391   6.643  77.686  1.00  0.00     0.042 H 
BRANCH  45  48
HETATM   48  C   LIG     1      -1.593   8.643  77.583  1.00  0.00    -0.001 C 
HETATM   49  H   LIG     1      -0.587   8.537  77.163  1.00  0.00     0.064 H 
HETATM   50  H   LIG     1      -1.503   8.558  78.670  1.00  0.00     0.064 H 
BRANCH  48  51
HETATM   51  N   LIG     1      -2.046   9.989  77.245  1.00  0.00    -0.360 N 
HETATM   52  C   LIG     1      -2.253  10.944  78.224  1.00  0.00     0.221 C 
HETATM   53  O   LIG     1      -2.096  10.695  79.419  1.00  0.00    -0.273 OA
HETATM   54  H   LIG     1      -1.926  10.300  76.289  1.00  0.00     0.162 HD
BRANCH  52  55
HETATM   55  C   LIG     1      -2.805  12.296  77.722  1.00  0.00     0.024 C 
HETATM   56  C   LIG     1      -3.402  12.218  76.308  1.00  0.00    -0.051 C 
HETATM   57  C   LIG     1      -4.864  11.764  76.203  1.00  0.00    -0.040 C 
HETATM   58  H   LIG     1      -2.792  11.565  75.669  1.00  0.00     0.034 H 
HETATM   59  H   LIG     1      -3.328  13.217  75.859  1.00  0.00     0.034 H 
HETATM   60  C   LIG     1      -5.804  12.208  77.327  1.00  0.00     0.035 C 
HETATM   61  H   LIG     1      -4.881  10.670  76.152  1.00  0.00     0.036 H 
HETATM   62  H   LIG     1      -5.256  12.125  75.244  1.00  0.00     0.036 H 
HETATM   63  C   LIG     1      -5.153  12.340  78.699  1.00  0.00    -0.040 C 
HETATM   64  H   LIG     1      -6.628  11.485  77.405  1.00  0.00     0.082 H 
HETATM   65  C   LIG     1      -3.781  13.006  78.660  1.00  0.00    -0.051 C 
HETATM   66  H   LIG     1      -5.058  11.352  79.160  1.00  0.00     0.036 H 
HETATM   67  H   LIG     1      -5.801  12.943  79.353  1.00  0.00     0.036 H 
HETATM   68  H   LIG     1      -3.385  13.072  79.677  1.00  0.00     0.034 H 
HETATM   69  H   LIG     1      -3.901  14.043  78.314  1.00  0.00     0.034 H 
HETATM   70  H   LIG     1      -1.907  12.925  77.647  1.00  0.00     0.054 H 
BRANCH  60  71
HETATM   71  O   LIG     1      -6.393  13.466  76.998  1.00  0.00    -0.396 OA
HETATM   72  H   LIG     1      -6.840  13.349  76.140  1.00  0.00     0.210 HD
ENDBRANCH  60  71
ENDBRANCH  52  55
ENDBRANCH  48  51
ENDBRANCH  45  48
ENDBRANCH   3  45
TORSDOF 11
ENDMDL
