MODEL 1
REMARK VINA RESULT:      -7.4      0.000      0.000
REMARK  11 active torsions:
REMARK  status: ('A' for Active; 'I' for Inactive)
REMARK    1  A    between atoms: N_1  and  S_2 
REMARK    2  A    between atoms: S_2  and  C_5 
REMARK    3  A    between atoms: C_8  and  C_9 
REMARK    4  A    between atoms: C_9  and  C_10 
REMARK    5  A    between atoms: C_14  and  N_15 
REMARK       I    between atoms: N_15  and  C_16 
REMARK       I    between atoms: C_16  and  N_18 
REMARK    6  A    between atoms: N_18  and  C_19 
REMARK    7  A    between atoms: C_22  and  C_23 
REMARK    8  A    between atoms: C_23  and  C_24 
REMARK    9  A    between atoms: C_24  and  N_25 
REMARK       I    between atoms: N_25  and  C_26 
REMARK   10  A    between atoms: C_26  and  C_28 
REMARK   11  A    between atoms: C_31  and  O_32 
ROOT
HETATM    1  C   LIG     1     -10.204  12.950  68.378  1.00  0.00     0.034 A 
HETATM    2  C   LIG     1     -11.456  12.385  68.170  1.00  0.00    -0.059 A 
HETATM    3  C   LIG     1     -11.545  11.066  67.729  1.00  0.00    -0.057 A 
HETATM    4  C   LIG     1     -10.371  10.343  67.524  1.00  0.00     0.035 A 
HETATM    5  N   LIG     1      -9.146  10.879  67.741  1.00  0.00    -0.264 NA
HETATM    6  C   LIG     1      -9.082  12.165  68.147  1.00  0.00     0.023 A 
HETATM    7  H   LIG     1     -12.356  12.973  68.322  1.00  0.00     0.086 H 
HETATM    8  H   LIG     1     -12.517  10.622  67.544  1.00  0.00     0.086 H 
HETATM    9  H   LIG     1      -8.076  12.552  68.281  1.00  0.00     0.117 H 
ENDROOT
BRANCH   1  10
HETATM   10  N   LIG     1     -10.131  14.278  68.843  1.00  0.00    -0.209 NA
HETATM   11  C   LIG     1      -9.895  15.307  67.937  1.00  0.00     0.303 C 
HETATM   12  N   LIG     1      -9.812  16.517  68.596  1.00  0.00    -0.313 N 
HETATM   13  O   LIG     1      -9.817  15.119  66.722  1.00  0.00    -0.253 OA
HETATM   14  H   LIG     1     -10.110  16.511  69.562  1.00  0.00     0.170 HD
HETATM   15  H   LIG     1      -9.495  14.372  69.627  1.00  0.00     0.138 HD
BRANCH  12  16
HETATM   16  C   LIG     1      -9.667  17.793  68.004  1.00  0.00     0.036 C 
HETATM   17  C   LIG     1     -10.688  18.397  67.271  1.00  0.00    -0.057 C 
HETATM   18  C   LIG     1     -10.577  19.726  66.886  1.00  0.00    -0.080 C 
HETATM   19  H   LIG     1     -11.606  17.879  67.014  1.00  0.00     0.086 H 
HETATM   20  C   LIG     1      -9.422  20.440  67.186  1.00  0.00    -0.076 C 
HETATM   21  H   LIG     1     -11.394  20.201  66.350  1.00  0.00     0.083 H 
HETATM   22  C   LIG     1      -8.291  19.802  67.716  1.00  0.00    -0.052 C 
HETATM   23  H   LIG     1      -9.392  21.494  66.923  1.00  0.00     0.084 H 
HETATM   24  C   LIG     1      -8.456  18.487  68.190  1.00  0.00    -0.051 C 
HETATM   25  H   LIG     1      -7.633  18.005  68.713  1.00  0.00     0.087 H 
BRANCH  22  26
HETATM   26  C   LIG     1      -6.944  20.512  67.822  1.00  0.00    -0.017 C 
HETATM   27  H   LIG     1      -6.728  20.935  66.832  1.00  0.00     0.047 H 
HETATM   28  H   LIG     1      -7.039  21.352  68.524  1.00  0.00     0.047 H 
BRANCH  26  29
HETATM   29  C   LIG     1      -5.723  19.694  68.273  1.00  0.00    -0.054 A 
HETATM   30  C   LIG     1      -5.282  19.631  69.603  1.00  0.00    -0.075 A 
HETATM   31  C   LIG     1      -4.266  18.760  70.002  1.00  0.00    -0.060 A 
HETATM   32  H   LIG     1      -5.745  20.238  70.377  1.00  0.00     0.084 H 
HETATM   33  C   LIG     1      -3.583  18.018  69.042  1.00  0.00     0.074 A 
HETATM   34  H   LIG     1      -4.048  18.689  71.064  1.00  0.00     0.085 H 
HETATM   35  C   LIG     1      -3.921  18.138  67.698  1.00  0.00    -0.060 A 
HETATM   36  C   LIG     1      -4.990  18.961  67.321  1.00  0.00    -0.075 A 
HETATM   37  H   LIG     1      -3.368  17.578  66.952  1.00  0.00     0.085 H 
HETATM   38  H   LIG     1      -5.252  19.032  66.269  1.00  0.00     0.084 H 
BRANCH  33  39
HETATM   39  S   LIG     1      -2.273  16.929  69.522  1.00  0.00     0.239 S 
HETATM   40  O   LIG     1      -1.274  17.722  70.204  1.00  0.00    -0.206 OA
HETATM   41  O   LIG     1      -1.928  16.084  68.399  1.00  0.00    -0.206 OA
BRANCH  39  42
HETATM   42  N   LIG     1      -3.033  15.925  70.652  1.00  0.00    -0.225 NA
HETATM   43  H   LIG     1      -4.048  15.842  70.545  1.00  0.00     0.136 HD
HETATM   44  H   LIG     1      -2.760  16.174  71.610  1.00  0.00     0.136 HD
ENDBRANCH  39  42
ENDBRANCH  33  39
ENDBRANCH  26  29
ENDBRANCH  22  26
ENDBRANCH  12  16
ENDBRANCH   1  10
BRANCH   4  45
HETATM   45  C   LIG     1     -10.442   8.920  67.024  1.00  0.00    -0.010 C 
HETATM   46  H   LIG     1     -10.042   8.887  66.004  1.00  0.00     0.044 H 
HETATM   47  H   LIG     1     -11.494   8.613  66.970  1.00  0.00     0.044 H 
BRANCH  45  48
HETATM   48  C   LIG     1      -9.663   7.938  67.905  1.00  0.00     0.000 C 
HETATM   49  H   LIG     1      -8.586   8.139  67.844  1.00  0.00     0.064 H 
HETATM   50  H   LIG     1      -9.827   6.905  67.579  1.00  0.00     0.064 H 
BRANCH  48  51
HETATM   51  N   LIG     1     -10.049   8.014  69.303  1.00  0.00    -0.360 N 
HETATM   52  C   LIG     1     -10.936   7.099  69.840  1.00  0.00     0.221 C 
HETATM   53  O   LIG     1     -11.455   6.202  69.186  1.00  0.00    -0.273 OA
HETATM   54  H   LIG     1      -9.843   8.854  69.827  1.00  0.00     0.162 HD
BRANCH  52  55
HETATM   55  C   LIG     1     -11.225   7.334  71.323  1.00  0.00     0.024 C 
HETATM   56  C   LIG     1     -11.257   8.829  71.653  1.00  0.00    -0.051 C 
HETATM   57  C   LIG     1     -12.581   9.504  71.284  1.00  0.00    -0.040 C 
HETATM   58  H   LIG     1     -10.437   9.357  71.151  1.00  0.00     0.034 H 
HETATM   59  H   LIG     1     -11.091   8.949  72.731  1.00  0.00     0.034 H 
HETATM   60  C   LIG     1     -13.789   8.775  71.867  1.00  0.00     0.035 C 
HETATM   61  H   LIG     1     -12.675   9.557  70.194  1.00  0.00     0.036 H 
HETATM   62  H   LIG     1     -12.557  10.534  71.660  1.00  0.00     0.036 H 
HETATM   63  C   LIG     1     -13.799   7.300  71.483  1.00  0.00    -0.040 C 
HETATM   64  H   LIG     1     -14.715   9.246  71.520  1.00  0.00     0.082 H 
HETATM   65  C   LIG     1     -12.481   6.591  71.793  1.00  0.00    -0.051 C 
HETATM   66  H   LIG     1     -14.029   7.204  70.416  1.00  0.00     0.036 H 
HETATM   67  H   LIG     1     -14.598   6.784  72.030  1.00  0.00     0.036 H 
HETATM   68  H   LIG     1     -12.509   5.583  71.359  1.00  0.00     0.034 H 
HETATM   69  H   LIG     1     -12.408   6.456  72.880  1.00  0.00     0.034 H 
HETATM   70  H   LIG     1     -10.378   6.890  71.866  1.00  0.00     0.054 H 
BRANCH  60  71
HETATM   71  O   LIG     1     -13.765   8.879  73.289  1.00  0.00    -0.396 OA
HETATM   72  H   LIG     1     -14.689   8.914  73.590  1.00  0.00     0.210 HD
ENDBRANCH  60  71
ENDBRANCH  52  55
ENDBRANCH  48  51
ENDBRANCH  45  48
ENDBRANCH   4  45
TORSDOF 11
ENDMDL
MODEL 2
REMARK VINA RESULT:      -7.1      6.570     10.659
REMARK  11 active torsions:
REMARK  status: ('A' for Active; 'I' for Inactive)
REMARK    1  A    between atoms: N_1  and  S_2 
REMARK    2  A    between atoms: S_2  and  C_5 
REMARK    3  A    between atoms: C_8  and  C_9 
REMARK    4  A    between atoms: C_9  and  C_10 
REMARK    5  A    between atoms: C_14  and  N_15 
REMARK       I    between atoms: N_15  and  C_16 
REMARK       I    between atoms: C_16  and  N_18 
REMARK    6  A    between atoms: N_18  and  C_19 
REMARK    7  A    between atoms: C_22  and  C_23 
REMARK    8  A    between atoms: C_23  and  C_24 
REMARK    9  A    between atoms: C_24  and  N_25 
REMARK       I    between atoms: N_25  and  C_26 
REMARK   10  A    between atoms: C_26  and  C_28 
REMARK   11  A    between atoms: C_31  and  O_32 
ROOT
HETATM    1  C   LIG     1     -11.363  11.987  64.394  1.00  0.00     0.034 A 
HETATM    2  C   LIG     1     -11.219  11.455  65.669  1.00  0.00    -0.059 A 
HETATM    3  C   LIG     1     -11.422  12.275  66.778  1.00  0.00    -0.057 A 
HETATM    4  C   LIG     1     -11.780  13.607  66.575  1.00  0.00     0.035 A 
HETATM    5  N   LIG     1     -11.940  14.130  65.336  1.00  0.00    -0.264 NA
HETATM    6  C   LIG     1     -11.718  13.324  64.276  1.00  0.00     0.023 A 
HETATM    7  H   LIG     1     -10.925  10.418  65.803  1.00  0.00     0.086 H 
HETATM    8  H   LIG     1     -11.292  11.875  67.778  1.00  0.00     0.086 H 
HETATM    9  H   LIG     1     -11.835  13.801  63.307  1.00  0.00     0.117 H 
ENDROOT
BRANCH   1  10
HETATM   10  N   LIG     1     -11.175  11.139  63.284  1.00  0.00    -0.209 NA
HETATM   11  C   LIG     1      -9.882  10.828  62.875  1.00  0.00     0.303 C 
HETATM   12  N   LIG     1      -9.915  10.030  61.749  1.00  0.00    -0.313 N 
HETATM   13  O   LIG     1      -8.881  11.204  63.487  1.00  0.00    -0.253 OA
HETATM   14  H   LIG     1     -10.819   9.647  61.509  1.00  0.00     0.170 HD
HETATM   15  H   LIG     1     -11.716  11.439  62.481  1.00  0.00     0.138 HD
BRANCH  12  16
HETATM   16  C   LIG     1      -8.806   9.443  61.097  1.00  0.00     0.036 C 
HETATM   17  C   LIG     1      -8.889   8.216  60.441  1.00  0.00    -0.057 C 
HETATM   18  C   LIG     1      -7.839   7.778  59.645  1.00  0.00    -0.080 C 
HETATM   19  H   LIG     1      -9.771   7.586  60.491  1.00  0.00     0.086 H 
HETATM   20  C   LIG     1      -6.681   8.543  59.545  1.00  0.00    -0.076 C 
HETATM   21  H   LIG     1      -7.927   6.839  59.105  1.00  0.00     0.083 H 
HETATM   22  C   LIG     1      -6.475   9.660  60.366  1.00  0.00    -0.052 C 
HETATM   23  H   LIG     1      -5.903   8.202  58.867  1.00  0.00     0.084 H 
HETATM   24  C   LIG     1      -7.583  10.142  61.088  1.00  0.00    -0.051 C 
HETATM   25  H   LIG     1      -7.491  11.074  61.641  1.00  0.00     0.087 H 
BRANCH  22  26
HETATM   26  C   LIG     1      -5.121  10.361  60.445  1.00  0.00    -0.017 C 
HETATM   27  H   LIG     1      -4.874  10.458  61.511  1.00  0.00     0.047 H 
HETATM   28  H   LIG     1      -4.359   9.715  59.990  1.00  0.00     0.047 H 
BRANCH  26  29
HETATM   29  C   LIG     1      -4.978  11.744  59.790  1.00  0.00    -0.054 A 
HETATM   30  C   LIG     1      -4.566  11.933  58.462  1.00  0.00    -0.075 A 
HETATM   31  C   LIG     1      -4.593  13.190  57.854  1.00  0.00    -0.060 A 
HETATM   32  H   LIG     1      -4.241  11.095  57.851  1.00  0.00     0.084 H 
HETATM   33  C   LIG     1      -4.922  14.311  58.611  1.00  0.00     0.074 A 
HETATM   34  H   LIG     1      -4.359  13.245  56.795  1.00  0.00     0.085 H 
HETATM   35  C   LIG     1      -5.231  14.175  59.961  1.00  0.00    -0.060 A 
HETATM   36  C   LIG     1      -5.269  12.899  60.539  1.00  0.00    -0.075 A 
HETATM   37  H   LIG     1      -5.459  15.055  60.552  1.00  0.00     0.085 H 
HETATM   38  H   LIG     1      -5.527  12.808  61.591  1.00  0.00     0.084 H 
BRANCH  33  39
HETATM   39  S   LIG     1      -4.936  15.917  57.867  1.00  0.00     0.239 S 
HETATM   40  O   LIG     1      -5.106  15.736  56.442  1.00  0.00    -0.206 OA
HETATM   41  O   LIG     1      -3.840  16.694  58.404  1.00  0.00    -0.206 OA
BRANCH  39  42
HETATM   42  N   LIG     1      -6.351  16.596  58.500  1.00  0.00    -0.225 NA
HETATM   43  H   LIG     1      -7.045  16.881  57.804  1.00  0.00     0.136 HD
HETATM   44  H   LIG     1      -6.135  17.345  59.167  1.00  0.00     0.136 HD
ENDBRANCH  39  42
ENDBRANCH  33  39
ENDBRANCH  26  29
ENDBRANCH  22  26
ENDBRANCH  12  16
ENDBRANCH   1  10
BRANCH   4  45
HETATM   45  C   LIG     1     -11.983  14.521  67.760  1.00  0.00    -0.010 C 
HETATM   46  H   LIG     1     -12.480  13.955  68.557  1.00  0.00     0.044 H 
HETATM   47  H   LIG     1     -12.659  15.335  67.470  1.00  0.00     0.044 H 
BRANCH  45  48
HETATM   48  C   LIG     1     -10.672  15.105  68.294  1.00  0.00     0.000 C 
HETATM   49  H   LIG     1      -9.826  14.778  67.677  1.00  0.00     0.064 H 
HETATM   50  H   LIG     1     -10.484  14.771  69.321  1.00  0.00     0.064 H 
BRANCH  48  51
HETATM   51  N   LIG     1     -10.672  16.558  68.309  1.00  0.00    -0.360 N 
HETATM   52  C   LIG     1     -10.367  17.274  67.166  1.00  0.00     0.221 C 
HETATM   53  O   LIG     1     -10.067  16.746  66.102  1.00  0.00    -0.273 OA
HETATM   54  H   LIG     1     -10.682  17.042  69.197  1.00  0.00     0.162 HD
BRANCH  52  55
HETATM   55  C   LIG     1     -10.417  18.789  67.370  1.00  0.00     0.024 C 
HETATM   56  C   LIG     1      -9.636  19.208  68.619  1.00  0.00    -0.051 C 
HETATM   57  C   LIG     1      -8.124  19.283  68.392  1.00  0.00    -0.040 C 
HETATM   58  H   LIG     1      -9.838  18.523  69.452  1.00  0.00     0.034 H 
HETATM   59  H   LIG     1      -9.993  20.196  68.935  1.00  0.00     0.034 H 
HETATM   60  C   LIG     1      -7.757  20.144  67.187  1.00  0.00     0.035 C 
HETATM   61  H   LIG     1      -7.721  18.273  68.257  1.00  0.00     0.036 H 
HETATM   62  H   LIG     1      -7.663  19.700  69.296  1.00  0.00     0.036 H 
HETATM   63  C   LIG     1      -8.479  19.689  65.924  1.00  0.00    -0.040 C 
HETATM   64  H   LIG     1      -6.675  20.113  67.017  1.00  0.00     0.082 H 
HETATM   65  C   LIG     1      -9.990  19.556  66.112  1.00  0.00    -0.051 C 
HETATM   66  H   LIG     1      -8.062  18.730  65.595  1.00  0.00     0.036 H 
HETATM   67  H   LIG     1      -8.300  20.410  65.118  1.00  0.00     0.036 H 
HETATM   68  H   LIG     1     -10.420  19.086  65.219  1.00  0.00     0.034 H 
HETATM   69  H   LIG     1     -10.421  20.563  66.168  1.00  0.00     0.034 H 
HETATM   70  H   LIG     1     -11.475  19.032  67.539  1.00  0.00     0.054 H 
BRANCH  60  71
HETATM   71  O   LIG     1      -8.107  21.502  67.450  1.00  0.00    -0.396 OA
HETATM   72  H   LIG     1      -8.103  21.618  68.416  1.00  0.00     0.210 HD
ENDBRANCH  60  71
ENDBRANCH  52  55
ENDBRANCH  48  51
ENDBRANCH  45  48
ENDBRANCH   4  45
TORSDOF 11
ENDMDL
MODEL 3
REMARK VINA RESULT:      -7.0      3.739     11.819
REMARK  11 active torsions:
REMARK  status: ('A' for Active; 'I' for Inactive)
REMARK    1  A    between atoms: N_1  and  S_2 
REMARK    2  A    between atoms: S_2  and  C_5 
REMARK    3  A    between atoms: C_8  and  C_9 
REMARK    4  A    between atoms: C_9  and  C_10 
REMARK    5  A    between atoms: C_14  and  N_15 
REMARK       I    between atoms: N_15  and  C_16 
REMARK       I    between atoms: C_16  and  N_18 
REMARK    6  A    between atoms: N_18  and  C_19 
REMARK    7  A    between atoms: C_22  and  C_23 
REMARK    8  A    between atoms: C_23  and  C_24 
REMARK    9  A    between atoms: C_24  and  N_25 
REMARK       I    between atoms: N_25  and  C_26 
REMARK   10  A    between atoms: C_26  and  C_28 
REMARK   11  A    between atoms: C_31  and  O_32 
ROOT
HETATM    1  C   LIG     1     -11.287  13.731  68.910  1.00  0.00     0.034 A 
HETATM    2  C   LIG     1     -10.160  14.540  68.953  1.00  0.00    -0.059 A 
HETATM    3  C   LIG     1      -9.848  15.336  67.853  1.00  0.00    -0.057 A 
HETATM    4  C   LIG     1     -10.688  15.310  66.741  1.00  0.00     0.035 A 
HETATM    5  N   LIG     1     -11.800  14.536  66.696  1.00  0.00    -0.264 NA
HETATM    6  C   LIG     1     -12.072  13.757  67.765  1.00  0.00     0.023 A 
HETATM    7  H   LIG     1      -9.511  14.533  69.824  1.00  0.00     0.086 H 
HETATM    8  H   LIG     1      -8.958  15.956  67.868  1.00  0.00     0.086 H 
HETATM    9  H   LIG     1     -12.960  13.140  67.666  1.00  0.00     0.117 H 
ENDROOT
BRANCH   1  10
HETATM   10  N   LIG     1     -11.600  12.947  70.039  1.00  0.00    -0.209 NA
HETATM   11  C   LIG     1     -11.974  11.619  69.865  1.00  0.00     0.303 C 
HETATM   12  N   LIG     1     -12.283  11.044  71.081  1.00  0.00    -0.313 N 
HETATM   13  O   LIG     1     -11.975  11.066  68.763  1.00  0.00    -0.253 OA
HETATM   14  H   LIG     1     -12.024  11.581  71.898  1.00  0.00     0.170 HD
HETATM   15  H   LIG     1     -12.270  13.405  70.645  1.00  0.00     0.138 HD
BRANCH  12  16
HETATM   16  C   LIG     1     -12.620   9.691  71.316  1.00  0.00     0.036 C 
HETATM   17  C   LIG     1     -13.871   9.306  71.796  1.00  0.00    -0.057 C 
HETATM   18  C   LIG     1     -14.226   7.964  71.817  1.00  0.00    -0.080 C 
HETATM   19  H   LIG     1     -14.615  10.022  72.127  1.00  0.00     0.086 H 
HETATM   20  C   LIG     1     -13.312   6.999  71.406  1.00  0.00    -0.076 C 
HETATM   21  H   LIG     1     -15.218   7.674  72.154  1.00  0.00     0.083 H 
HETATM   22  C   LIG     1     -11.976   7.332  71.137  1.00  0.00    -0.052 C 
HETATM   23  H   LIG     1     -13.642   5.964  71.378  1.00  0.00     0.084 H 
HETATM   24  C   LIG     1     -11.663   8.699  71.025  1.00  0.00    -0.051 C 
HETATM   25  H   LIG     1     -10.666   8.990  70.702  1.00  0.00     0.087 H 
BRANCH  22  26
HETATM   26  C   LIG     1     -10.909   6.262  70.927  1.00  0.00    -0.017 C 
HETATM   27  H   LIG     1      -9.967   6.670  71.319  1.00  0.00     0.047 H 
HETATM   28  H   LIG     1     -11.161   5.382  71.533  1.00  0.00     0.047 H 
BRANCH  26  29
HETATM   29  C   LIG     1     -10.656   5.756  69.497  1.00  0.00    -0.054 A 
HETATM   30  C   LIG     1     -11.220   6.346  68.357  1.00  0.00    -0.075 A 
HETATM   31  C   LIG     1     -10.850   5.958  67.067  1.00  0.00    -0.060 A 
HETATM   32  H   LIG     1     -11.944   7.153  68.442  1.00  0.00     0.084 H 
HETATM   33  C   LIG     1      -9.989   4.877  66.896  1.00  0.00     0.074 A 
HETATM   34  H   LIG     1     -11.249   6.528  66.233  1.00  0.00     0.085 H 
HETATM   35  C   LIG     1      -9.495   4.198  68.005  1.00  0.00    -0.060 A 
HETATM   36  C   LIG     1      -9.819   4.644  69.294  1.00  0.00    -0.075 A 
HETATM   37  H   LIG     1      -8.847   3.340  67.866  1.00  0.00     0.085 H 
HETATM   38  H   LIG     1      -9.412   4.112  70.150  1.00  0.00     0.084 H 
BRANCH  33  39
HETATM   39  S   LIG     1      -9.528   4.352  65.270  1.00  0.00     0.239 S 
HETATM   40  O   LIG     1     -10.741   3.999  64.566  1.00  0.00    -0.206 OA
HETATM   41  O   LIG     1      -8.419   3.428  65.371  1.00  0.00    -0.206 OA
BRANCH  39  42
HETATM   42  N   LIG     1      -8.902   5.771  64.596  1.00  0.00    -0.225 NA
HETATM   43  H   LIG     1      -8.782   6.547  65.252  1.00  0.00     0.136 HD
HETATM   44  H   LIG     1      -9.427   6.045  63.758  1.00  0.00     0.136 HD
ENDBRANCH  39  42
ENDBRANCH  33  39
ENDBRANCH  26  29
ENDBRANCH  22  26
ENDBRANCH  12  16
ENDBRANCH   1  10
BRANCH   4  45
HETATM   45  C   LIG     1     -10.359  16.145  65.528  1.00  0.00    -0.010 C 
HETATM   46  H   LIG     1     -10.953  15.782  64.680  1.00  0.00     0.044 H 
HETATM   47  H   LIG     1      -9.302  15.998  65.270  1.00  0.00     0.044 H 
BRANCH  45  48
HETATM   48  C   LIG     1     -10.635  17.637  65.737  1.00  0.00     0.000 C 
HETATM   49  H   LIG     1     -11.345  17.784  66.560  1.00  0.00     0.064 H 
HETATM   50  H   LIG     1     -11.072  18.085  64.837  1.00  0.00     0.064 H 
BRANCH  48  51
HETATM   51  N   LIG     1      -9.433  18.390  66.050  1.00  0.00    -0.360 N 
HETATM   52  C   LIG     1      -9.460  19.399  66.996  1.00  0.00     0.221 C 
HETATM   53  O   LIG     1     -10.474  19.727  67.600  1.00  0.00    -0.273 OA
HETATM   54  H   LIG     1      -8.636  18.326  65.431  1.00  0.00     0.162 HD
BRANCH  52  55
HETATM   55  C   LIG     1      -8.105  20.080  67.193  1.00  0.00     0.024 C 
HETATM   56  C   LIG     1      -7.510  19.749  68.565  1.00  0.00    -0.051 C 
HETATM   57  C   LIG     1      -6.833  18.377  68.618  1.00  0.00    -0.040 C 
HETATM   58  H   LIG     1      -8.280  19.797  69.345  1.00  0.00     0.034 H 
HETATM   59  H   LIG     1      -6.767  20.517  68.813  1.00  0.00     0.034 H 
HETATM   60  C   LIG     1      -5.809  18.189  67.503  1.00  0.00     0.035 C 
HETATM   61  H   LIG     1      -7.593  17.590  68.555  1.00  0.00     0.036 H 
HETATM   62  H   LIG     1      -6.339  18.277  69.593  1.00  0.00     0.036 H 
HETATM   63  C   LIG     1      -6.413  18.448  66.128  1.00  0.00    -0.040 C 
HETATM   64  H   LIG     1      -5.402  17.171  67.533  1.00  0.00     0.082 H 
HETATM   65  C   LIG     1      -7.139  19.791  66.037  1.00  0.00    -0.051 C 
HETATM   66  H   LIG     1      -7.104  17.636  65.877  1.00  0.00     0.036 H 
HETATM   67  H   LIG     1      -5.620  18.440  65.370  1.00  0.00     0.036 H 
HETATM   68  H   LIG     1      -7.670  19.843  65.078  1.00  0.00     0.034 H 
HETATM   69  H   LIG     1      -6.387  20.589  66.016  1.00  0.00     0.034 H 
HETATM   70  H   LIG     1      -8.308  21.160  67.167  1.00  0.00     0.054 H 
BRANCH  60  71
HETATM   71  O   LIG     1      -4.720  19.088  67.702  1.00  0.00    -0.396 OA
HETATM   72  H   LIG     1      -4.548  19.123  68.659  1.00  0.00     0.210 HD
ENDBRANCH  60  71
ENDBRANCH  52  55
ENDBRANCH  48  51
ENDBRANCH  45  48
ENDBRANCH   4  45
TORSDOF 11
ENDMDL
MODEL 4
REMARK VINA RESULT:      -6.9      4.343     12.429
REMARK  11 active torsions:
REMARK  status: ('A' for Active; 'I' for Inactive)
REMARK    1  A    between atoms: N_1  and  S_2 
REMARK    2  A    between atoms: S_2  and  C_5 
REMARK    3  A    between atoms: C_8  and  C_9 
REMARK    4  A    between atoms: C_9  and  C_10 
REMARK    5  A    between atoms: C_14  and  N_15 
REMARK       I    between atoms: N_15  and  C_16 
REMARK       I    between atoms: C_16  and  N_18 
REMARK    6  A    between atoms: N_18  and  C_19 
REMARK    7  A    between atoms: C_22  and  C_23 
REMARK    8  A    between atoms: C_23  and  C_24 
REMARK    9  A    between atoms: C_24  and  N_25 
REMARK       I    between atoms: N_25  and  C_26 
REMARK   10  A    between atoms: C_26  and  C_28 
REMARK   11  A    between atoms: C_31  and  O_32 
ROOT
HETATM    1  C   LIG     1     -11.345  13.642  69.093  1.00  0.00     0.034 A 
HETATM    2  C   LIG     1     -10.108  14.275  69.123  1.00  0.00    -0.059 A 
HETATM    3  C   LIG     1      -9.714  15.055  68.038  1.00  0.00    -0.057 A 
HETATM    4  C   LIG     1     -10.581  15.192  66.955  1.00  0.00     0.035 A 
HETATM    5  N   LIG     1     -11.796  14.594  66.924  1.00  0.00    -0.264 NA
HETATM    6  C   LIG     1     -12.149  13.825  67.977  1.00  0.00     0.023 A 
HETATM    7  H   LIG     1      -9.442  14.141  69.971  1.00  0.00     0.086 H 
HETATM    8  H   LIG     1      -8.742  15.536  68.042  1.00  0.00     0.086 H 
HETATM    9  H   LIG     1     -13.122  13.350  67.889  1.00  0.00     0.117 H 
ENDROOT
BRANCH   1  10
HETATM   10  N   LIG     1     -11.738  12.874  70.207  1.00  0.00    -0.209 NA
HETATM   11  C   LIG     1     -12.108  11.546  70.023  1.00  0.00     0.303 C 
HETATM   12  N   LIG     1     -12.502  10.987  71.222  1.00  0.00    -0.313 N 
HETATM   13  O   LIG     1     -12.040  10.980  68.930  1.00  0.00    -0.253 OA
HETATM   14  H   LIG     1     -12.294  11.531  72.048  1.00  0.00     0.170 HD
HETATM   15  H   LIG     1     -12.443  13.343  70.763  1.00  0.00     0.138 HD
BRANCH  12  16
HETATM   16  C   LIG     1     -12.863   9.639  71.448  1.00  0.00     0.036 C 
HETATM   17  C   LIG     1     -14.174   9.253  71.721  1.00  0.00    -0.057 C 
HETATM   18  C   LIG     1     -14.517   7.908  71.733  1.00  0.00    -0.080 C 
HETATM   19  H   LIG     1     -14.971   9.970  71.890  1.00  0.00     0.086 H 
HETATM   20  C   LIG     1     -13.538   6.942  71.524  1.00  0.00    -0.076 C 
HETATM   21  H   LIG     1     -15.550   7.616  71.906  1.00  0.00     0.083 H 
HETATM   22  C   LIG     1     -12.179   7.284  71.477  1.00  0.00    -0.052 C 
HETATM   23  H   LIG     1     -13.849   5.901  71.481  1.00  0.00     0.084 H 
HETATM   24  C   LIG     1     -11.862   8.651  71.366  1.00  0.00    -0.051 C 
HETATM   25  H   LIG     1     -10.826   8.944  71.208  1.00  0.00     0.087 H 
BRANCH  22  26
HETATM   26  C   LIG     1     -11.082   6.223  71.495  1.00  0.00    -0.017 C 
HETATM   27  H   LIG     1     -11.441   5.382  70.887  1.00  0.00     0.047 H 
HETATM   28  H   LIG     1     -10.188   6.626  71.000  1.00  0.00     0.047 H 
BRANCH  26  29
HETATM   29  C   LIG     1     -10.623   5.673  72.855  1.00  0.00    -0.054 A 
HETATM   30  C   LIG     1     -10.164   6.484  73.904  1.00  0.00    -0.075 A 
HETATM   31  C   LIG     1      -9.901   5.967  75.174  1.00  0.00    -0.060 A 
HETATM   32  H   LIG     1     -10.031   7.554  73.768  1.00  0.00     0.084 H 
HETATM   33  C   LIG     1      -9.977   4.593  75.385  1.00  0.00     0.074 A 
HETATM   34  H   LIG     1      -9.650   6.669  75.964  1.00  0.00     0.085 H 
HETATM   35  C   LIG     1     -10.323   3.745  74.337  1.00  0.00    -0.060 A 
HETATM   36  C   LIG     1     -10.654   4.285  73.087  1.00  0.00    -0.075 A 
HETATM   37  H   LIG     1     -10.354   2.674  74.500  1.00  0.00     0.085 H 
HETATM   38  H   LIG     1     -10.938   3.611  72.283  1.00  0.00     0.084 H 
BRANCH  33  39
HETATM   39  S   LIG     1      -9.621   3.913  76.980  1.00  0.00     0.239 S 
HETATM   40  O   LIG     1      -8.247   4.236  77.294  1.00  0.00    -0.206 OA
HETATM   41  O   LIG     1     -10.108   2.552  77.031  1.00  0.00    -0.206 OA
BRANCH  39  42
HETATM   42  N   LIG     1     -10.635   4.815  77.991  1.00  0.00    -0.225 NA
HETATM   43  H   LIG     1     -10.316   5.768  78.186  1.00  0.00     0.136 HD
HETATM   44  H   LIG     1     -10.861   4.295  78.846  1.00  0.00     0.136 HD
ENDBRANCH  39  42
ENDBRANCH  33  39
ENDBRANCH  26  29
ENDBRANCH  22  26
ENDBRANCH  12  16
ENDBRANCH   1  10
BRANCH   4  45
HETATM   45  C   LIG     1     -10.167  16.013  65.758  1.00  0.00    -0.010 C 
HETATM   46  H   LIG     1     -10.953  15.943  64.996  1.00  0.00     0.044 H 
HETATM   47  H   LIG     1      -9.257  15.578  65.325  1.00  0.00     0.044 H 
BRANCH  45  48
HETATM   48  C   LIG     1      -9.922  17.486  66.099  1.00  0.00     0.000 C 
HETATM   49  H   LIG     1     -10.325  17.722  67.092  1.00  0.00     0.064 H 
HETATM   50  H   LIG     1     -10.417  18.143  65.375  1.00  0.00     0.064 H 
BRANCH  48  51
HETATM   51  N   LIG     1      -8.512  17.833  66.101  1.00  0.00    -0.360 N 
HETATM   52  C   LIG     1      -7.878  18.200  67.274  1.00  0.00     0.221 C 
HETATM   53  O   LIG     1      -8.452  18.274  68.354  1.00  0.00    -0.273 OA
HETATM   54  H   LIG     1      -8.047  18.015  65.221  1.00  0.00     0.162 HD
BRANCH  52  55
HETATM   55  C   LIG     1      -6.397  18.531  67.084  1.00  0.00     0.024 C 
HETATM   56  C   LIG     1      -6.187  19.485  65.905  1.00  0.00    -0.051 C 
HETATM   57  C   LIG     1      -6.474  20.948  66.250  1.00  0.00    -0.040 C 
HETATM   58  H   LIG     1      -6.810  19.192  65.051  1.00  0.00     0.034 H 
HETATM   59  H   LIG     1      -5.144  19.400  65.573  1.00  0.00     0.034 H 
HETATM   60  C   LIG     1      -5.716  21.414  67.490  1.00  0.00     0.035 C 
HETATM   61  H   LIG     1      -7.549  21.086  66.405  1.00  0.00     0.036 H 
HETATM   62  H   LIG     1      -6.186  21.566  65.390  1.00  0.00     0.036 H 
HETATM   63  C   LIG     1      -5.976  20.508  68.687  1.00  0.00    -0.040 C 
HETATM   64  H   LIG     1      -6.004  22.441  67.744  1.00  0.00     0.082 H 
HETATM   65  C   LIG     1      -5.744  19.028  68.380  1.00  0.00    -0.051 C 
HETATM   66  H   LIG     1      -7.003  20.656  69.037  1.00  0.00     0.036 H 
HETATM   67  H   LIG     1      -5.311  20.790  69.513  1.00  0.00     0.036 H 
HETATM   68  H   LIG     1      -6.091  18.430  69.232  1.00  0.00     0.034 H 
HETATM   69  H   LIG     1      -4.664  18.857  68.302  1.00  0.00     0.034 H 
HETATM   70  H   LIG     1      -5.909  17.578  66.835  1.00  0.00     0.054 H 
BRANCH  60  71
HETATM   71  O   LIG     1      -4.316  21.421  67.216  1.00  0.00    -0.396 OA
HETATM   72  H   LIG     1      -4.008  20.500  67.270  1.00  0.00     0.210 HD
ENDBRANCH  60  71
ENDBRANCH  52  55
ENDBRANCH  48  51
ENDBRANCH  45  48
ENDBRANCH   4  45
TORSDOF 11
ENDMDL
MODEL 5
REMARK VINA RESULT:      -6.6      3.879     11.456
REMARK  11 active torsions:
REMARK  status: ('A' for Active; 'I' for Inactive)
REMARK    1  A    between atoms: N_1  and  S_2 
REMARK    2  A    between atoms: S_2  and  C_5 
REMARK    3  A    between atoms: C_8  and  C_9 
REMARK    4  A    between atoms: C_9  and  C_10 
REMARK    5  A    between atoms: C_14  and  N_15 
REMARK       I    between atoms: N_15  and  C_16 
REMARK       I    between atoms: C_16  and  N_18 
REMARK    6  A    between atoms: N_18  and  C_19 
REMARK    7  A    between atoms: C_22  and  C_23 
REMARK    8  A    between atoms: C_23  and  C_24 
REMARK    9  A    between atoms: C_24  and  N_25 
REMARK       I    between atoms: N_25  and  C_26 
REMARK   10  A    between atoms: C_26  and  C_28 
REMARK   11  A    between atoms: C_31  and  O_32 
ROOT
HETATM    1  C   LIG     1     -11.518  13.800  69.167  1.00  0.00     0.034 A 
HETATM    2  C   LIG     1     -10.515  14.735  69.389  1.00  0.00    -0.059 A 
HETATM    3  C   LIG     1     -10.066  15.519  68.328  1.00  0.00    -0.057 A 
HETATM    4  C   LIG     1     -10.650  15.355  67.073  1.00  0.00     0.035 A 
HETATM    5  N   LIG     1     -11.641  14.458  66.851  1.00  0.00    -0.264 NA
HETATM    6  C   LIG     1     -12.046  13.694  67.888  1.00  0.00     0.023 A 
HETATM    7  H   LIG     1     -10.063  14.835  70.372  1.00  0.00     0.086 H 
HETATM    8  H   LIG     1      -9.268  16.237  68.485  1.00  0.00     0.086 H 
HETATM    9  H   LIG     1     -12.825  12.976  67.649  1.00  0.00     0.117 H 
ENDROOT
BRANCH   1  10
HETATM   10  N   LIG     1     -11.975  13.029  70.255  1.00  0.00    -0.209 NA
HETATM   11  C   LIG     1     -12.206  11.669  70.077  1.00  0.00     0.303 C 
HETATM   12  N   LIG     1     -12.692  11.109  71.242  1.00  0.00    -0.313 N 
HETATM   13  O   LIG     1     -11.958  11.084  69.022  1.00  0.00    -0.253 OA
HETATM   14  H   LIG     1     -12.633  11.691  72.066  1.00  0.00     0.170 HD
HETATM   15  H   LIG     1     -12.780  13.448  70.706  1.00  0.00     0.138 HD
BRANCH  12  16
HETATM   16  C   LIG     1     -12.962   9.741  71.473  1.00  0.00     0.036 C 
HETATM   17  C   LIG     1     -14.256   9.255  71.656  1.00  0.00    -0.057 C 
HETATM   18  C   LIG     1     -14.490   7.887  71.675  1.00  0.00    -0.080 C 
HETATM   19  H   LIG     1     -15.117   9.908  71.747  1.00  0.00     0.086 H 
HETATM   20  C   LIG     1     -13.424   7.000  71.565  1.00  0.00    -0.076 C 
HETATM   21  H   LIG     1     -15.507   7.515  71.777  1.00  0.00     0.083 H 
HETATM   22  C   LIG     1     -12.097   7.450  71.611  1.00  0.00    -0.052 C 
HETATM   23  H   LIG     1     -13.648   5.937  71.523  1.00  0.00     0.084 H 
HETATM   24  C   LIG     1     -11.882   8.836  71.491  1.00  0.00    -0.051 C 
HETATM   25  H   LIG     1     -10.864   9.209  71.404  1.00  0.00     0.087 H 
BRANCH  22  26
HETATM   26  C   LIG     1     -10.924   6.482  71.738  1.00  0.00    -0.017 C 
HETATM   27  H   LIG     1     -11.351   5.476  71.841  1.00  0.00     0.047 H 
HETATM   28  H   LIG     1     -10.346   6.498  70.804  1.00  0.00     0.047 H 
BRANCH  26  29
HETATM   29  C   LIG     1      -9.921   6.699  72.882  1.00  0.00    -0.054 A 
HETATM   30  C   LIG     1      -8.807   7.546  72.785  1.00  0.00    -0.075 A 
HETATM   31  C   LIG     1      -8.005   7.838  73.890  1.00  0.00    -0.060 A 
HETATM   32  H   LIG     1      -8.552   8.032  71.847  1.00  0.00     0.084 H 
HETATM   33  C   LIG     1      -8.235   7.183  75.097  1.00  0.00     0.074 A 
HETATM   34  H   LIG     1      -7.223   8.582  73.766  1.00  0.00     0.085 H 
HETATM   35  C   LIG     1      -9.264   6.253  75.200  1.00  0.00    -0.060 A 
HETATM   36  C   LIG     1     -10.106   6.024  74.103  1.00  0.00    -0.075 A 
HETATM   37  H   LIG     1      -9.421   5.726  76.134  1.00  0.00     0.085 H 
HETATM   38  H   LIG     1     -10.915   5.306  74.204  1.00  0.00     0.084 H 
BRANCH  33  39
HETATM   39  S   LIG     1      -7.212   7.517  76.503  1.00  0.00     0.239 S 
HETATM   40  O   LIG     1      -5.852   7.182  76.143  1.00  0.00    -0.206 OA
HETATM   41  O   LIG     1      -7.839   6.962  77.683  1.00  0.00    -0.206 OA
BRANCH  39  42
HETATM   42  N   LIG     1      -7.337   9.198  76.649  1.00  0.00    -0.225 NA
HETATM   43  H   LIG     1      -8.038   9.635  76.044  1.00  0.00     0.136 HD
HETATM   44  H   LIG     1      -6.417   9.645  76.568  1.00  0.00     0.136 HD
ENDBRANCH  39  42
ENDBRANCH  33  39
ENDBRANCH  26  29
ENDBRANCH  22  26
ENDBRANCH  12  16
ENDBRANCH   1  10
BRANCH   4  45
HETATM   45  C   LIG     1     -10.164  16.176  65.904  1.00  0.00    -0.010 C 
HETATM   46  H   LIG     1     -10.638  15.798  64.990  1.00  0.00     0.044 H 
HETATM   47  H   LIG     1      -9.082  16.031  65.791  1.00  0.00     0.044 H 
BRANCH  45  48
HETATM   48  C   LIG     1     -10.471  17.669  66.054  1.00  0.00     0.000 C 
HETATM   49  H   LIG     1     -11.004  17.859  66.994  1.00  0.00     0.064 H 
HETATM   50  H   LIG     1     -11.109  18.022  65.235  1.00  0.00     0.064 H 
BRANCH  48  51
HETATM   51  N   LIG     1      -9.273  18.490  66.050  1.00  0.00    -0.360 N 
HETATM   52  C   LIG     1      -9.054  19.422  67.049  1.00  0.00     0.221 C 
HETATM   53  O   LIG     1      -9.844  19.623  67.965  1.00  0.00    -0.273 OA
HETATM   54  H   LIG     1      -8.709  18.535  65.213  1.00  0.00     0.162 HD
BRANCH  52  55
HETATM   55  C   LIG     1      -7.744  20.192  66.882  1.00  0.00     0.024 C 
HETATM   56  C   LIG     1      -6.902  20.142  68.160  1.00  0.00    -0.051 C 
HETATM   57  C   LIG     1      -6.120  18.836  68.321  1.00  0.00    -0.040 C 
HETATM   58  H   LIG     1      -7.531  20.292  69.047  1.00  0.00     0.034 H 
HETATM   59  H   LIG     1      -6.191  20.977  68.139  1.00  0.00     0.034 H 
HETATM   60  C   LIG     1      -5.286  18.500  67.088  1.00  0.00     0.035 C 
HETATM   61  H   LIG     1      -6.814  18.014  68.529  1.00  0.00     0.036 H 
HETATM   62  H   LIG     1      -5.462  18.936  69.194  1.00  0.00     0.036 H 
HETATM   63  C   LIG     1      -6.132  18.480  65.821  1.00  0.00    -0.040 C 
HETATM   64  H   LIG     1      -4.801  17.526  67.215  1.00  0.00     0.082 H 
HETATM   65  C   LIG     1      -6.967  19.747  65.637  1.00  0.00    -0.051 C 
HETATM   66  H   LIG     1      -6.789  17.603  65.838  1.00  0.00     0.036 H 
HETATM   67  H   LIG     1      -5.480  18.374  64.945  1.00  0.00     0.036 H 
HETATM   68  H   LIG     1      -7.655  19.601  64.794  1.00  0.00     0.034 H 
HETATM   69  H   LIG     1      -6.295  20.564  65.347  1.00  0.00     0.034 H 
HETATM   70  H   LIG     1      -8.033  21.239  66.712  1.00  0.00     0.054 H 
BRANCH  60  71
HETATM   71  O   LIG     1      -4.254  19.472  66.934  1.00  0.00    -0.396 OA
HETATM   72  H   LIG     1      -3.926  19.687  67.825  1.00  0.00     0.210 HD
ENDBRANCH  60  71
ENDBRANCH  52  55
ENDBRANCH  48  51
ENDBRANCH  45  48
ENDBRANCH   4  45
TORSDOF 11
ENDMDL
MODEL 6
REMARK VINA RESULT:      -6.4      3.853     12.024
REMARK  11 active torsions:
REMARK  status: ('A' for Active; 'I' for Inactive)
REMARK    1  A    between atoms: N_1  and  S_2 
REMARK    2  A    between atoms: S_2  and  C_5 
REMARK    3  A    between atoms: C_8  and  C_9 
REMARK    4  A    between atoms: C_9  and  C_10 
REMARK    5  A    between atoms: C_14  and  N_15 
REMARK       I    between atoms: N_15  and  C_16 
REMARK       I    between atoms: C_16  and  N_18 
REMARK    6  A    between atoms: N_18  and  C_19 
REMARK    7  A    between atoms: C_22  and  C_23 
REMARK    8  A    between atoms: C_23  and  C_24 
REMARK    9  A    between atoms: C_24  and  N_25 
REMARK       I    between atoms: N_25  and  C_26 
REMARK   10  A    between atoms: C_26  and  C_28 
REMARK   11  A    between atoms: C_31  and  O_32 
ROOT
HETATM    1  C   LIG     1     -11.545  13.719  69.038  1.00  0.00     0.034 A 
HETATM    2  C   LIG     1     -10.451  14.558  69.208  1.00  0.00    -0.059 A 
HETATM    3  C   LIG     1     -10.024  15.346  68.141  1.00  0.00    -0.057 A 
HETATM    4  C   LIG     1     -10.719  15.282  66.934  1.00  0.00     0.035 A 
HETATM    5  N   LIG     1     -11.798  14.481  66.765  1.00  0.00    -0.264 NA
HETATM    6  C   LIG     1     -12.182  13.710  67.805  1.00  0.00     0.023 A 
HETATM    7  H   LIG     1      -9.915  14.580  70.152  1.00  0.00     0.086 H 
HETATM    8  H   LIG     1      -9.157  15.988  68.255  1.00  0.00     0.086 H 
HETATM    9  H   LIG     1     -13.036  13.069  67.607  1.00  0.00     0.117 H 
ENDROOT
BRANCH   1  10
HETATM   10  N   LIG     1     -11.978  12.944  70.134  1.00  0.00    -0.209 NA
HETATM   11  C   LIG     1     -12.013  11.559  70.016  1.00  0.00     0.303 C 
HETATM   12  N   LIG     1     -12.508  10.992  71.174  1.00  0.00    -0.313 N 
HETATM   13  O   LIG     1     -11.612  10.964  69.014  1.00  0.00    -0.253 OA
HETATM   14  H   LIG     1     -12.588  11.614  71.967  1.00  0.00     0.170 HD
HETATM   15  H   LIG     1     -12.862  13.271  70.505  1.00  0.00     0.138 HD
BRANCH  12  16
HETATM   16  C   LIG     1     -12.612   9.612  71.462  1.00  0.00     0.036 C 
HETATM   17  C   LIG     1     -13.841   8.964  71.578  1.00  0.00    -0.057 C 
HETATM   18  C   LIG     1     -13.893   7.579  71.657  1.00  0.00    -0.080 C 
HETATM   19  H   LIG     1     -14.785   9.497  71.570  1.00  0.00     0.086 H 
HETATM   20  C   LIG     1     -12.714   6.841  71.674  1.00  0.00    -0.076 C 
HETATM   21  H   LIG     1     -14.857   7.078  71.707  1.00  0.00     0.083 H 
HETATM   22  C   LIG     1     -11.466   7.469  71.790  1.00  0.00    -0.052 C 
HETATM   23  H   LIG     1     -12.792   5.757  71.676  1.00  0.00     0.084 H 
HETATM   24  C   LIG     1     -11.427   8.864  71.608  1.00  0.00    -0.051 C 
HETATM   25  H   LIG     1     -10.464   9.368  71.574  1.00  0.00     0.087 H 
BRANCH  22  26
HETATM   26  C   LIG     1     -10.189   6.676  72.056  1.00  0.00    -0.017 C 
HETATM   27  H   LIG     1      -9.418   7.402  72.346  1.00  0.00     0.047 H 
HETATM   28  H   LIG     1     -10.354   6.013  72.916  1.00  0.00     0.047 H 
BRANCH  26  29
HETATM   29  C   LIG     1      -9.626   5.802  70.924  1.00  0.00    -0.054 A 
HETATM   30  C   LIG     1      -9.944   4.445  70.763  1.00  0.00    -0.075 A 
HETATM   31  C   LIG     1      -9.537   3.721  69.640  1.00  0.00    -0.060 A 
HETATM   32  H   LIG     1     -10.550   3.920  71.497  1.00  0.00     0.084 H 
HETATM   33  C   LIG     1      -8.692   4.318  68.708  1.00  0.00     0.074 A 
HETATM   34  H   LIG     1      -9.907   2.706  69.531  1.00  0.00     0.085 H 
HETATM   35  C   LIG     1      -8.268   5.630  68.893  1.00  0.00    -0.060 A 
HETATM   36  C   LIG     1      -8.741   6.367  69.987  1.00  0.00    -0.075 A 
HETATM   37  H   LIG     1      -7.588   6.081  68.178  1.00  0.00     0.085 H 
HETATM   38  H   LIG     1      -8.413   7.395  70.108  1.00  0.00     0.084 H 
BRANCH  33  39
HETATM   39  S   LIG     1      -8.142   3.411  67.291  1.00  0.00     0.239 S 
HETATM   40  O   LIG     1      -7.337   2.308  67.767  1.00  0.00    -0.206 OA
HETATM   41  O   LIG     1      -7.642   4.341  66.302  1.00  0.00    -0.206 OA
BRANCH  39  42
HETATM   42  N   LIG     1      -9.592   2.796  66.672  1.00  0.00    -0.225 NA
HETATM   43  H   LIG     1      -9.900   3.217  65.791  1.00  0.00     0.136 HD
HETATM   44  H   LIG     1     -10.329   2.798  67.386  1.00  0.00     0.136 HD
ENDBRANCH  39  42
ENDBRANCH  33  39
ENDBRANCH  26  29
ENDBRANCH  22  26
ENDBRANCH  12  16
ENDBRANCH   1  10
BRANCH   4  45
HETATM   45  C   LIG     1     -10.261  16.109  65.757  1.00  0.00    -0.010 C 
HETATM   46  H   LIG     1     -11.047  16.095  64.992  1.00  0.00     0.044 H 
HETATM   47  H   LIG     1      -9.373  15.639  65.316  1.00  0.00     0.044 H 
BRANCH  45  48
HETATM   48  C   LIG     1      -9.945  17.559  66.132  1.00  0.00     0.000 C 
HETATM   49  H   LIG     1     -10.307  17.782  67.144  1.00  0.00     0.064 H 
HETATM   50  H   LIG     1     -10.433  18.258  65.443  1.00  0.00     0.064 H 
BRANCH  48  51
HETATM   51  N   LIG     1      -8.521  17.848  66.099  1.00  0.00    -0.360 N 
HETATM   52  C   LIG     1      -7.877  18.346  67.217  1.00  0.00     0.221 C 
HETATM   53  O   LIG     1      -8.451  18.587  68.272  1.00  0.00    -0.273 OA
HETATM   54  H   LIG     1      -8.048  17.892  65.207  1.00  0.00     0.162 HD
BRANCH  52  55
HETATM   55  C   LIG     1      -6.384  18.589  66.997  1.00  0.00     0.024 C 
HETATM   56  C   LIG     1      -6.109  19.121  65.587  1.00  0.00    -0.051 C 
HETATM   57  C   LIG     1      -6.380  20.621  65.441  1.00  0.00    -0.040 C 
HETATM   58  H   LIG     1      -6.704  18.578  64.843  1.00  0.00     0.034 H 
HETATM   59  H   LIG     1      -5.056  18.929  65.344  1.00  0.00     0.034 H 
HETATM   60  C   LIG     1      -5.661  21.449  66.502  1.00  0.00     0.035 C 
HETATM   61  H   LIG     1      -7.458  20.807  65.498  1.00  0.00     0.036 H 
HETATM   62  H   LIG     1      -6.047  20.933  64.443  1.00  0.00     0.036 H 
HETATM   63  C   LIG     1      -5.986  20.969  67.911  1.00  0.00    -0.040 C 
HETATM   64  H   LIG     1      -5.939  22.505  66.407  1.00  0.00     0.082 H 
HETATM   65  C   LIG     1      -5.772  19.466  68.096  1.00  0.00    -0.051 C 
HETATM   66  H   LIG     1      -7.023  21.227  68.153  1.00  0.00     0.036 H 
HETATM   67  H   LIG     1      -5.348  21.493  68.634  1.00  0.00     0.036 H 
HETATM   68  H   LIG     1      -6.163  19.170  69.078  1.00  0.00     0.034 H 
HETATM   69  H   LIG     1      -4.693  19.272  68.123  1.00  0.00     0.034 H 
HETATM   70  H   LIG     1      -5.905  17.603  67.081  1.00  0.00     0.054 H 
BRANCH  60  71
HETATM   71  O   LIG     1      -4.252  21.360  66.300  1.00  0.00    -0.396 OA
HETATM   72  H   LIG     1      -3.965  20.501  66.655  1.00  0.00     0.210 HD
ENDBRANCH  60  71
ENDBRANCH  52  55
ENDBRANCH  48  51
ENDBRANCH  45  48
ENDBRANCH   4  45
TORSDOF 11
ENDMDL
MODEL 7
REMARK VINA RESULT:      -6.2      4.542     12.965
REMARK  11 active torsions:
REMARK  status: ('A' for Active; 'I' for Inactive)
REMARK    1  A    between atoms: N_1  and  S_2 
REMARK    2  A    between atoms: S_2  and  C_5 
REMARK    3  A    between atoms: C_8  and  C_9 
REMARK    4  A    between atoms: C_9  and  C_10 
REMARK    5  A    between atoms: C_14  and  N_15 
REMARK       I    between atoms: N_15  and  C_16 
REMARK       I    between atoms: C_16  and  N_18 
REMARK    6  A    between atoms: N_18  and  C_19 
REMARK    7  A    between atoms: C_22  and  C_23 
REMARK    8  A    between atoms: C_23  and  C_24 
REMARK    9  A    between atoms: C_24  and  N_25 
REMARK       I    between atoms: N_25  and  C_26 
REMARK   10  A    between atoms: C_26  and  C_28 
REMARK   11  A    between atoms: C_31  and  O_32 
ROOT
HETATM    1  C   LIG     1     -11.918  14.101  70.002  1.00  0.00     0.034 A 
HETATM    2  C   LIG     1     -11.255  15.229  70.469  1.00  0.00    -0.059 A 
HETATM    3  C   LIG     1     -10.818  16.190  69.559  1.00  0.00    -0.057 A 
HETATM    4  C   LIG     1     -11.074  15.999  68.202  1.00  0.00     0.035 A 
HETATM    5  N   LIG     1     -11.736  14.912  67.739  1.00  0.00    -0.264 NA
HETATM    6  C   LIG     1     -12.132  13.983  68.636  1.00  0.00     0.023 A 
HETATM    7  H   LIG     1     -11.052  15.348  71.529  1.00  0.00     0.086 H 
HETATM    8  H   LIG     1     -10.280  17.063  69.911  1.00  0.00     0.086 H 
HETATM    9  H   LIG     1     -12.635  13.121  68.208  1.00  0.00     0.117 H 
ENDROOT
BRANCH   1  10
HETATM   10  N   LIG     1     -12.372  13.149  70.937  1.00  0.00    -0.209 NA
HETATM   11  C   LIG     1     -12.279  11.795  70.631  1.00  0.00     0.303 C 
HETATM   12  N   LIG     1     -12.818  11.035  71.650  1.00  0.00    -0.313 N 
HETATM   13  O   LIG     1     -11.748  11.380  69.599  1.00  0.00    -0.253 OA
HETATM   14  H   LIG     1     -13.015  11.531  72.509  1.00  0.00     0.170 HD
HETATM   15  H   LIG     1     -13.308  13.354  71.264  1.00  0.00     0.138 HD
BRANCH  12  16
HETATM   16  C   LIG     1     -12.827   9.624  71.738  1.00  0.00     0.036 C 
HETATM   17  C   LIG     1     -14.010   8.887  71.788  1.00  0.00    -0.057 C 
HETATM   18  C   LIG     1     -13.974   7.505  71.668  1.00  0.00    -0.080 C 
HETATM   19  H   LIG     1     -14.985   9.354  71.880  1.00  0.00     0.086 H 
HETATM   20  C   LIG     1     -12.752   6.851  71.549  1.00  0.00    -0.076 C 
HETATM   21  H   LIG     1     -14.903   6.940  71.667  1.00  0.00     0.083 H 
HETATM   22  C   LIG     1     -11.542   7.536  71.725  1.00  0.00    -0.052 C 
HETATM   23  H   LIG     1     -12.763   5.775  71.397  1.00  0.00     0.084 H 
HETATM   24  C   LIG     1     -11.595   8.942  71.746  1.00  0.00    -0.051 C 
HETATM   25  H   LIG     1     -10.666   9.508  71.762  1.00  0.00     0.087 H 
BRANCH  22  26
HETATM   26  C   LIG     1     -10.210   6.799  71.843  1.00  0.00    -0.017 C 
HETATM   27  H   LIG     1      -9.845   6.636  70.820  1.00  0.00     0.047 H 
HETATM   28  H   LIG     1      -9.486   7.451  72.349  1.00  0.00     0.047 H 
BRANCH  26  29
HETATM   29  C   LIG     1     -10.186   5.453  72.584  1.00  0.00    -0.054 A 
HETATM   30  C   LIG     1     -10.305   5.333  73.976  1.00  0.00    -0.075 A 
HETATM   31  C   LIG     1     -10.432   4.090  74.600  1.00  0.00    -0.060 A 
HETATM   32  H   LIG     1     -10.336   6.212  74.614  1.00  0.00     0.084 H 
HETATM   33  C   LIG     1     -10.319   2.927  73.843  1.00  0.00     0.074 A 
HETATM   34  H   LIG     1     -10.625   4.078  75.670  1.00  0.00     0.085 H 
HETATM   35  C   LIG     1     -10.091   3.007  72.473  1.00  0.00    -0.060 A 
HETATM   36  C   LIG     1     -10.037   4.261  71.850  1.00  0.00    -0.075 A 
HETATM   37  H   LIG     1      -9.977   2.098  71.893  1.00  0.00     0.085 H 
HETATM   38  H   LIG     1      -9.875   4.306  70.777  1.00  0.00     0.084 H 
BRANCH  33  39
HETATM   39  S   LIG     1     -10.450   1.341  74.618  1.00  0.00     0.239 S 
HETATM   40  O   LIG     1     -11.723   0.772  74.234  1.00  0.00    -0.206 OA
HETATM   41  O   LIG     1     -10.067   1.464  76.008  1.00  0.00    -0.206 OA
BRANCH  39  42
HETATM   42  N   LIG     1      -9.214   0.467  73.863  1.00  0.00    -0.225 NA
HETATM   43  H   LIG     1      -9.106   0.646  72.861  1.00  0.00     0.136 HD
HETATM   44  H   LIG     1      -9.286  -0.534  74.076  1.00  0.00     0.136 HD
ENDBRANCH  39  42
ENDBRANCH  33  39
ENDBRANCH  26  29
ENDBRANCH  22  26
ENDBRANCH  12  16
ENDBRANCH   1  10
BRANCH   4  45
HETATM   45  C   LIG     1     -10.591  17.015  67.195  1.00  0.00    -0.010 C 
HETATM   46  H   LIG     1     -11.429  17.288  66.543  1.00  0.00     0.044 H 
HETATM   47  H   LIG     1      -9.826  16.550  66.560  1.00  0.00     0.044 H 
BRANCH  45  48
HETATM   48  C   LIG     1     -10.022  18.278  67.846  1.00  0.00     0.000 C 
HETATM   49  H   LIG     1      -9.523  18.032  68.792  1.00  0.00     0.064 H 
HETATM   50  H   LIG     1     -10.819  18.997  68.069  1.00  0.00     0.064 H 
BRANCH  48  51
HETATM   51  N   LIG     1      -9.055  18.957  67.001  1.00  0.00    -0.360 N 
HETATM   52  C   LIG     1      -7.942  19.566  67.552  1.00  0.00     0.221 C 
HETATM   53  O   LIG     1      -7.715  19.589  68.755  1.00  0.00    -0.273 OA
HETATM   54  H   LIG     1      -9.302  19.172  66.044  1.00  0.00     0.162 HD
BRANCH  52  55
HETATM   55  C   LIG     1      -7.039  20.230  66.511  1.00  0.00     0.024 C 
HETATM   56  C   LIG     1      -5.846  20.925  67.173  1.00  0.00    -0.051 C 
HETATM   57  C   LIG     1      -4.715  19.964  67.549  1.00  0.00    -0.040 C 
HETATM   58  H   LIG     1      -6.162  21.471  68.071  1.00  0.00     0.034 H 
HETATM   59  H   LIG     1      -5.452  21.675  66.476  1.00  0.00     0.034 H 
HETATM   60  C   LIG     1      -4.275  19.094  66.376  1.00  0.00     0.035 C 
HETATM   61  H   LIG     1      -5.036  19.326  68.380  1.00  0.00     0.036 H 
HETATM   62  H   LIG     1      -3.864  20.559  67.905  1.00  0.00     0.036 H 
HETATM   63  C   LIG     1      -5.448  18.344  65.756  1.00  0.00    -0.040 C 
HETATM   64  H   LIG     1      -3.518  18.373  66.704  1.00  0.00     0.082 H 
HETATM   65  C   LIG     1      -6.623  19.256  65.402  1.00  0.00    -0.051 C 
HETATM   66  H   LIG     1      -5.783  17.561  66.445  1.00  0.00     0.036 H 
HETATM   67  H   LIG     1      -5.120  17.843  64.837  1.00  0.00     0.036 H 
HETATM   68  H   LIG     1      -7.477  18.636  65.103  1.00  0.00     0.034 H 
HETATM   69  H   LIG     1      -6.348  19.847  64.519  1.00  0.00     0.034 H 
HETATM   70  H   LIG     1      -7.654  21.004  66.033  1.00  0.00     0.054 H 
BRANCH  60  71
HETATM   71  O   LIG     1      -3.676  19.914  65.375  1.00  0.00    -0.396 OA
HETATM   72  H   LIG     1      -3.840  20.840  65.626  1.00  0.00     0.210 HD
ENDBRANCH  60  71
ENDBRANCH  52  55
ENDBRANCH  48  51
ENDBRANCH  45  48
ENDBRANCH   4  45
TORSDOF 11
ENDMDL
