MODEL 1
REMARK VINA RESULT:      -7.8      0.000      0.000
REMARK  14 active torsions:
REMARK  status: ('A' for Active; 'I' for Inactive)
REMARK    1  A    between atoms: N_1  and  S_2 
REMARK    2  A    between atoms: S_2  and  C_5 
REMARK    3  A    between atoms: C_8  and  C_9 
REMARK    4  A    between atoms: C_9  and  C_10 
REMARK    5  A    between atoms: C_14  and  N_15 
REMARK       I    between atoms: N_15  and  C_16 
REMARK    6  A    between atoms: C_16  and  C_18 
REMARK    7  A    between atoms: C_18  and  C_19 
REMARK    8  A    between atoms: C_18  and  C_21 
REMARK    9  A    between atoms: C_19  and  S_20 
REMARK   10  A    between atoms: C_26  and  C_27 
REMARK   11  A    between atoms: C_27  and  C_28 
REMARK   12  A    between atoms: C_28  and  N_29 
REMARK       I    between atoms: N_29  and  C_30 
REMARK   13  A    between atoms: C_30  and  C_32 
REMARK   14  A    between atoms: C_36  and  O_38 
ROOT
HETATM    1  C   LIG     1      -9.408  11.492  66.381  1.00  0.00     0.059 C 
HETATM    2  H   LIG     1      -8.442  12.010  66.274  1.00  0.00     0.063 H 
ENDROOT
BRANCH   1   3
HETATM    3  C   LIG     1      -9.860  11.764  67.828  1.00  0.00     0.231 C 
HETATM    4  N   LIG     1     -11.216  11.984  68.022  1.00  0.00    -0.327 N 
HETATM    5  H   LIG     1     -11.800  12.050  67.195  1.00  0.00     0.169 HD
HETATM    6  O   LIG     1      -9.021  11.662  68.724  1.00  0.00    -0.272 OA
BRANCH   4   7
HETATM    7  C   LIG     1     -11.906  12.052  69.267  1.00  0.00     0.035 A 
HETATM    8  C   LIG     1     -12.123  13.238  69.970  1.00  0.00    -0.057 A 
HETATM    9  C   LIG     1     -12.720  13.221  71.236  1.00  0.00    -0.080 A 
HETATM   10  H   LIG     1     -11.820  14.204  69.579  1.00  0.00     0.086 H 
HETATM   11  C   LIG     1     -13.072  12.014  71.838  1.00  0.00    -0.076 A 
HETATM   12  H   LIG     1     -12.865  14.157  71.771  1.00  0.00     0.083 H 
HETATM   13  C   LIG     1     -12.860  10.804  71.169  1.00  0.00    -0.052 A 
HETATM   14  H   LIG     1     -13.469  12.032  72.851  1.00  0.00     0.084 H 
HETATM   15  C   LIG     1     -12.318  10.845  69.862  1.00  0.00    -0.051 A 
HETATM   16  H   LIG     1     -12.171   9.907  69.331  1.00  0.00     0.087 H 
BRANCH  13  17
HETATM   17  C   LIG     1     -12.979   9.478  71.900  1.00  0.00    -0.017 C 
HETATM   18  H   LIG     1     -13.007   9.647  72.984  1.00  0.00     0.047 H 
HETATM   19  H   LIG     1     -13.975   9.078  71.658  1.00  0.00     0.047 H 
BRANCH  17  20
HETATM   20  C   LIG     1     -11.955   8.397  71.617  1.00  0.00    -0.054 A 
HETATM   21  C   LIG     1     -12.303   7.236  70.908  1.00  0.00    -0.075 A 
HETATM   22  C   LIG     1     -11.335   6.274  70.582  1.00  0.00    -0.060 A 
HETATM   23  H   LIG     1     -13.330   7.085  70.578  1.00  0.00     0.084 H 
HETATM   24  C   LIG     1     -10.022   6.474  70.996  1.00  0.00     0.074 A 
HETATM   25  H   LIG     1     -11.619   5.393  70.013  1.00  0.00     0.085 H 
HETATM   26  C   LIG     1      -9.649   7.622  71.690  1.00  0.00    -0.060 A 
HETATM   27  C   LIG     1     -10.613   8.581  71.993  1.00  0.00    -0.075 A 
HETATM   28  H   LIG     1      -8.614   7.777  71.989  1.00  0.00     0.085 H 
HETATM   29  H   LIG     1     -10.305   9.488  72.509  1.00  0.00     0.084 H 
BRANCH  24  30
HETATM   30  S   LIG     1      -8.764   5.279  70.614  1.00  0.00     0.239 S 
HETATM   31  O   LIG     1      -8.000   5.001  71.832  1.00  0.00    -0.206 OA
HETATM   32  O   LIG     1      -8.141   5.607  69.369  1.00  0.00    -0.206 OA
BRANCH  30  33
HETATM   33  N   LIG     1      -9.674   3.894  70.328  1.00  0.00    -0.225 NA
HETATM   34  H   LIG     1      -9.122   3.061  70.508  1.00  0.00     0.136 HD
HETATM   35  H   LIG     1     -10.073   3.940  69.384  1.00  0.00     0.136 HD
ENDBRANCH  30  33
ENDBRANCH  24  30
ENDBRANCH  17  20
ENDBRANCH  13  17
ENDBRANCH   4   7
ENDBRANCH   1   3
BRANCH   1  36
HETATM   36  C   LIG     1      -9.045   9.976  66.277  1.00  0.00    -0.011 C 
HETATM   37  H   LIG     1      -8.070   9.794  66.741  1.00  0.00     0.050 H 
HETATM   38  H   LIG     1      -8.941   9.693  65.222  1.00  0.00     0.050 H 
BRANCH  36  39
HETATM   39  S   LIG     1     -10.190   8.754  67.040  1.00  0.00    -0.181 SA
HETATM   40  H   LIG     1     -10.585   9.498  68.084  1.00  0.00     0.101 HD
ENDBRANCH  36  39
ENDBRANCH   1  36
BRANCH   1  41
HETATM   41  C   LIG     1     -10.295  12.098  65.289  1.00  0.00    -0.020 C 
HETATM   42  C   LIG     1     -10.878  11.248  64.337  1.00  0.00     0.009 C 
HETATM   43  N   LIG     1     -11.794  11.596  63.410  1.00  0.00    -0.273 NA
HETATM   44  H   LIG     1     -10.629  10.194  64.263  1.00  0.00     0.115 H 
HETATM   45  C   LIG     1     -12.139  12.883  63.372  1.00  0.00     0.002 C 
HETATM   46  C   LIG     1     -11.538  13.839  64.164  1.00  0.00    -0.059 C 
HETATM   47  H   LIG     1     -12.916  13.147  62.664  1.00  0.00     0.114 H 
HETATM   48  C   LIG     1     -10.586  13.478  65.138  1.00  0.00    -0.047 C 
HETATM   49  H   LIG     1     -11.835  14.866  63.996  1.00  0.00     0.086 H 
BRANCH  48  50
HETATM   50  C   LIG     1      -9.895  14.630  65.866  1.00  0.00    -0.026 C 
HETATM   51  H   LIG     1      -9.545  15.341  65.102  1.00  0.00     0.042 H 
HETATM   52  H   LIG     1      -8.988  14.285  66.374  1.00  0.00     0.042 H 
BRANCH  50  53
HETATM   53  C   LIG     1     -10.759  15.396  66.889  1.00  0.00    -0.001 C 
HETATM   54  H   LIG     1     -10.457  15.119  67.906  1.00  0.00     0.064 H 
HETATM   55  H   LIG     1     -11.808  15.116  66.760  1.00  0.00     0.064 H 
BRANCH  53  56
HETATM   56  N   LIG     1     -10.626  16.844  66.836  1.00  0.00    -0.360 N 
HETATM   57  C   LIG     1     -10.446  17.589  67.979  1.00  0.00     0.221 C 
HETATM   58  O   LIG     1     -10.406  17.077  69.094  1.00  0.00    -0.273 OA
HETATM   59  H   LIG     1     -10.417  17.265  65.942  1.00  0.00     0.162 HD
BRANCH  57  60
HETATM   60  C   LIG     1     -10.390  19.108  67.762  1.00  0.00     0.024 C 
HETATM   61  H   LIG     1     -11.423  19.465  67.868  1.00  0.00     0.054 H 
HETATM   62  C   LIG     1      -9.551  19.780  68.868  1.00  0.00    -0.051 C 
HETATM   63  C   LIG     1      -8.042  19.583  68.671  1.00  0.00    -0.040 C 
HETATM   64  H   LIG     1      -9.831  19.390  69.854  1.00  0.00     0.034 H 
HETATM   65  H   LIG     1      -9.776  20.852  68.892  1.00  0.00     0.034 H 
HETATM   66  C   LIG     1      -7.575  19.946  67.261  1.00  0.00     0.035 C 
HETATM   67  H   LIG     1      -7.782  18.538  68.872  1.00  0.00     0.036 H 
HETATM   68  H   LIG     1      -7.512  20.193  69.411  1.00  0.00     0.036 H 
HETATM   69  H   LIG     1      -6.514  19.702  67.149  1.00  0.00     0.082 H 
HETATM   70  C   LIG     1      -8.390  19.201  66.207  1.00  0.00    -0.040 C 
HETATM   71  C   LIG     1      -9.881  19.502  66.368  1.00  0.00    -0.051 C 
HETATM   72  H   LIG     1      -8.214  18.122  66.288  1.00  0.00     0.036 H 
HETATM   73  H   LIG     1      -8.078  19.510  65.202  1.00  0.00     0.036 H 
HETATM   74  H   LIG     1     -10.436  19.001  65.570  1.00  0.00     0.034 H 
HETATM   75  H   LIG     1     -10.055  20.575  66.216  1.00  0.00     0.034 H 
BRANCH  66  76
HETATM   76  O   LIG     1      -7.726  21.344  67.018  1.00  0.00    -0.396 OA
HETATM   77  H   LIG     1      -7.759  21.808  67.871  1.00  0.00     0.210 HD
ENDBRANCH  66  76
ENDBRANCH  57  60
ENDBRANCH  53  56
ENDBRANCH  50  53
ENDBRANCH  48  50
ENDBRANCH   1  41
TORSDOF 14
ENDMDL
MODEL 2
REMARK VINA RESULT:      -7.4      3.198      4.983
REMARK  14 active torsions:
REMARK  status: ('A' for Active; 'I' for Inactive)
REMARK    1  A    between atoms: N_1  and  S_2 
REMARK    2  A    between atoms: S_2  and  C_5 
REMARK    3  A    between atoms: C_8  and  C_9 
REMARK    4  A    between atoms: C_9  and  C_10 
REMARK    5  A    between atoms: C_14  and  N_15 
REMARK       I    between atoms: N_15  and  C_16 
REMARK    6  A    between atoms: C_16  and  C_18 
REMARK    7  A    between atoms: C_18  and  C_19 
REMARK    8  A    between atoms: C_18  and  C_21 
REMARK    9  A    between atoms: C_19  and  S_20 
REMARK   10  A    between atoms: C_26  and  C_27 
REMARK   11  A    between atoms: C_27  and  C_28 
REMARK   12  A    between atoms: C_28  and  N_29 
REMARK       I    between atoms: N_29  and  C_30 
REMARK   13  A    between atoms: C_30  and  C_32 
REMARK   14  A    between atoms: C_36  and  O_38 
ROOT
HETATM    1  C   LIG     1      -9.884  15.744  67.289  1.00  0.00     0.059 C 
HETATM    2  H   LIG     1      -9.006  15.106  67.105  1.00  0.00     0.063 H 
ENDROOT
BRANCH   1   3
HETATM    3  C   LIG     1     -10.151  15.646  68.802  1.00  0.00     0.231 C 
HETATM    4  N   LIG     1     -11.478  15.722  69.203  1.00  0.00    -0.327 N 
HETATM    5  H   LIG     1     -12.168  15.934  68.489  1.00  0.00     0.169 HD
HETATM    6  O   LIG     1      -9.199  15.402  69.543  1.00  0.00    -0.272 OA
BRANCH   4   7
HETATM    7  C   LIG     1     -12.001  15.456  70.501  1.00  0.00     0.035 A 
HETATM    8  C   LIG     1     -11.713  16.229  71.626  1.00  0.00    -0.057 A 
HETATM    9  C   LIG     1     -12.178  15.853  72.892  1.00  0.00    -0.080 A 
HETATM   10  H   LIG     1     -11.106  17.126  71.569  1.00  0.00     0.086 H 
HETATM   11  C   LIG     1     -12.905  14.675  73.060  1.00  0.00    -0.076 A 
HETATM   12  H   LIG     1     -11.928  16.465  73.756  1.00  0.00     0.083 H 
HETATM   13  C   LIG     1     -13.203  13.867  71.957  1.00  0.00    -0.052 A 
HETATM   14  H   LIG     1     -13.191  14.377  74.066  1.00  0.00     0.084 H 
HETATM   15  C   LIG     1     -12.783  14.298  70.676  1.00  0.00    -0.051 A 
HETATM   16  H   LIG     1     -13.031  13.683  69.813  1.00  0.00     0.087 H 
BRANCH  13  17
HETATM   17  C   LIG     1     -13.747  12.462  72.145  1.00  0.00    -0.017 C 
HETATM   18  H   LIG     1     -13.870  12.246  73.213  1.00  0.00     0.047 H 
HETATM   19  H   LIG     1     -14.773  12.471  71.747  1.00  0.00     0.047 H 
BRANCH  17  20
HETATM   20  C   LIG     1     -13.004  11.304  71.511  1.00  0.00    -0.054 A 
HETATM   21  C   LIG     1     -12.106  11.511  70.451  1.00  0.00    -0.075 A 
HETATM   22  C   LIG     1     -11.362  10.448  69.919  1.00  0.00    -0.060 A 
HETATM   23  H   LIG     1     -11.958  12.513  70.049  1.00  0.00     0.084 H 
HETATM   24  C   LIG     1     -11.547   9.171  70.440  1.00  0.00     0.074 A 
HETATM   25  H   LIG     1     -10.655  10.631  69.115  1.00  0.00     0.085 H 
HETATM   26  C   LIG     1     -12.421   8.940  71.498  1.00  0.00    -0.060 A 
HETATM   27  C   LIG     1     -13.142  10.006  72.034  1.00  0.00    -0.075 A 
HETATM   28  H   LIG     1     -12.540   7.941  71.913  1.00  0.00     0.085 H 
HETATM   29  H   LIG     1     -13.800   9.821  72.880  1.00  0.00     0.084 H 
BRANCH  24  30
HETATM   30  S   LIG     1     -10.633   7.791  69.792  1.00  0.00     0.239 S 
HETATM   31  O   LIG     1     -11.350   6.559  70.127  1.00  0.00    -0.206 OA
HETATM   32  O   LIG     1      -9.237   7.966  70.048  1.00  0.00    -0.206 OA
BRANCH  30  33
HETATM   33  N   LIG     1     -10.830   7.991  68.134  1.00  0.00    -0.225 NA
HETATM   34  H   LIG     1      -9.991   7.707  67.638  1.00  0.00     0.136 HD
HETATM   35  H   LIG     1     -11.129   8.952  67.941  1.00  0.00     0.136 HD
ENDBRANCH  30  33
ENDBRANCH  24  30
ENDBRANCH  17  20
ENDBRANCH  13  17
ENDBRANCH   4   7
ENDBRANCH   1   3
BRANCH   1  36
HETATM   36  C   LIG     1     -11.053  15.012  66.555  1.00  0.00    -0.011 C 
HETATM   37  H   LIG     1     -11.872  15.714  66.368  1.00  0.00     0.050 H 
HETATM   38  H   LIG     1     -11.463  14.228  67.203  1.00  0.00     0.050 H 
BRANCH  36  39
HETATM   39  S   LIG     1     -10.700  14.222  64.930  1.00  0.00    -0.181 SA
HETATM   40  H   LIG     1     -10.282  15.319  64.279  1.00  0.00     0.101 HD
ENDBRANCH  36  39
ENDBRANCH   1  36
BRANCH   1  41
HETATM   41  C   LIG     1      -9.468  17.128  66.782  1.00  0.00    -0.020 C 
HETATM   42  C   LIG     1     -10.465  18.043  66.410  1.00  0.00     0.009 C 
HETATM   43  N   LIG     1     -10.278  19.341  66.087  1.00  0.00    -0.273 NA
HETATM   44  H   LIG     1     -11.514  17.773  66.346  1.00  0.00     0.115 H 
HETATM   45  C   LIG     1      -9.018  19.773  66.081  1.00  0.00     0.002 C 
HETATM   46  C   LIG     1      -7.941  18.938  66.295  1.00  0.00    -0.059 C 
HETATM   47  H   LIG     1      -8.878  20.828  65.876  1.00  0.00     0.114 H 
HETATM   48  C   LIG     1      -8.133  17.584  66.639  1.00  0.00    -0.047 C 
HETATM   49  H   LIG     1      -6.958  19.375  66.187  1.00  0.00     0.086 H 
BRANCH  48  50
HETATM   50  C   LIG     1      -6.873  16.727  66.728  1.00  0.00    -0.026 C 
HETATM   51  H   LIG     1      -6.232  16.990  65.873  1.00  0.00     0.042 H 
HETATM   52  H   LIG     1      -7.110  15.666  66.592  1.00  0.00     0.042 H 
BRANCH  50  53
HETATM   53  C   LIG     1      -6.047  16.873  68.023  1.00  0.00    -0.001 C 
HETATM   54  H   LIG     1      -5.334  16.044  68.101  1.00  0.00     0.064 H 
HETATM   55  H   LIG     1      -6.715  16.827  68.887  1.00  0.00     0.064 H 
BRANCH  53  56
HETATM   56  N   LIG     1      -5.235  18.079  68.094  1.00  0.00    -0.360 N 
HETATM   57  C   LIG     1      -5.454  19.035  69.060  1.00  0.00     0.221 C 
HETATM   58  O   LIG     1      -6.350  18.928  69.893  1.00  0.00    -0.273 OA
HETATM   59  H   LIG     1      -4.359  18.088  67.590  1.00  0.00     0.162 HD
BRANCH  57  60
HETATM   60  C   LIG     1      -4.559  20.278  68.960  1.00  0.00     0.024 C 
HETATM   61  H   LIG     1      -4.867  20.796  68.041  1.00  0.00     0.054 H 
HETATM   62  C   LIG     1      -4.825  21.230  70.142  1.00  0.00    -0.051 C 
HETATM   63  C   LIG     1      -4.193  20.743  71.452  1.00  0.00    -0.040 C 
HETATM   64  H   LIG     1      -5.903  21.359  70.298  1.00  0.00     0.034 H 
HETATM   65  H   LIG     1      -4.434  22.226  69.900  1.00  0.00     0.034 H 
HETATM   66  C   LIG     1      -2.716  20.376  71.299  1.00  0.00     0.035 C 
HETATM   67  H   LIG     1      -4.739  19.865  71.815  1.00  0.00     0.036 H 
HETATM   68  H   LIG     1      -4.308  21.527  72.208  1.00  0.00     0.036 H 
HETATM   69  H   LIG     1      -2.342  19.952  72.235  1.00  0.00     0.082 H 
HETATM   70  C   LIG     1      -2.516  19.378  70.162  1.00  0.00    -0.040 C 
HETATM   71  C   LIG     1      -3.066  19.940  68.850  1.00  0.00    -0.051 C 
HETATM   72  H   LIG     1      -3.013  18.431  70.401  1.00  0.00     0.036 H 
HETATM   73  H   LIG     1      -1.448  19.165  70.031  1.00  0.00     0.036 H 
HETATM   74  H   LIG     1      -2.862  19.230  68.042  1.00  0.00     0.034 H 
HETATM   75  H   LIG     1      -2.513  20.851  68.583  1.00  0.00     0.034 H 
BRANCH  66  76
HETATM   76  O   LIG     1      -1.933  21.532  71.004  1.00  0.00    -0.396 OA
HETATM   77  H   LIG     1      -1.207  21.591  71.648  1.00  0.00     0.210 HD
ENDBRANCH  66  76
ENDBRANCH  57  60
ENDBRANCH  53  56
ENDBRANCH  50  53
ENDBRANCH  48  50
ENDBRANCH   1  41
TORSDOF 14
ENDMDL
MODEL 3
REMARK VINA RESULT:      -6.7      3.789     11.664
REMARK  14 active torsions:
REMARK  status: ('A' for Active; 'I' for Inactive)
REMARK    1  A    between atoms: N_1  and  S_2 
REMARK    2  A    between atoms: S_2  and  C_5 
REMARK    3  A    between atoms: C_8  and  C_9 
REMARK    4  A    between atoms: C_9  and  C_10 
REMARK    5  A    between atoms: C_14  and  N_15 
REMARK       I    between atoms: N_15  and  C_16 
REMARK    6  A    between atoms: C_16  and  C_18 
REMARK    7  A    between atoms: C_18  and  C_19 
REMARK    8  A    between atoms: C_18  and  C_21 
REMARK    9  A    between atoms: C_19  and  S_20 
REMARK   10  A    between atoms: C_26  and  C_27 
REMARK   11  A    between atoms: C_27  and  C_28 
REMARK   12  A    between atoms: C_28  and  N_29 
REMARK       I    between atoms: N_29  and  C_30 
REMARK   13  A    between atoms: C_30  and  C_32 
REMARK   14  A    between atoms: C_36  and  O_38 
ROOT
HETATM    1  C   LIG     1     -10.970  14.391  68.621  1.00  0.00     0.059 C 
HETATM    2  H   LIG     1     -11.556  13.805  67.896  1.00  0.00     0.063 H 
ENDROOT
BRANCH   1   3
HETATM    3  C   LIG     1     -10.800  15.781  67.983  1.00  0.00     0.231 C 
HETATM    4  N   LIG     1     -10.123  16.730  68.736  1.00  0.00    -0.327 N 
HETATM    5  H   LIG     1      -9.874  16.478  69.687  1.00  0.00     0.169 HD
HETATM    6  O   LIG     1     -11.173  15.933  66.819  1.00  0.00    -0.272 OA
BRANCH   4   7
HETATM    7  C   LIG     1      -9.660  18.005  68.298  1.00  0.00     0.035 A 
HETATM    8  C   LIG     1     -10.496  19.001  67.792  1.00  0.00    -0.057 A 
HETATM    9  C   LIG     1      -9.964  20.192  67.285  1.00  0.00    -0.080 A 
HETATM   10  H   LIG     1     -11.573  18.882  67.748  1.00  0.00     0.086 H 
HETATM   11  C   LIG     1      -8.585  20.391  67.240  1.00  0.00    -0.076 A 
HETATM   12  H   LIG     1     -10.636  20.948  66.882  1.00  0.00     0.083 H 
HETATM   13  C   LIG     1      -7.715  19.410  67.727  1.00  0.00    -0.052 A 
HETATM   14  H   LIG     1      -8.203  21.298  66.776  1.00  0.00     0.084 H 
HETATM   15  C   LIG     1      -8.273  18.241  68.298  1.00  0.00    -0.051 A 
HETATM   16  H   LIG     1      -7.599  17.486  68.698  1.00  0.00     0.087 H 
BRANCH  13  17
HETATM   17  C   LIG     1      -6.224  19.481  67.445  1.00  0.00    -0.017 C 
HETATM   18  H   LIG     1      -5.756  20.242  68.082  1.00  0.00     0.047 H 
HETATM   19  H   LIG     1      -5.797  18.530  67.795  1.00  0.00     0.047 H 
BRANCH  17  20
HETATM   20  C   LIG     1      -5.764  19.711  66.020  1.00  0.00    -0.054 A 
HETATM   21  C   LIG     1      -5.966  18.737  65.027  1.00  0.00    -0.075 A 
HETATM   22  C   LIG     1      -5.608  18.985  63.693  1.00  0.00    -0.060 A 
HETATM   23  H   LIG     1      -6.430  17.785  65.282  1.00  0.00     0.084 H 
HETATM   24  C   LIG     1      -5.023  20.205  63.369  1.00  0.00     0.074 A 
HETATM   25  H   LIG     1      -5.792  18.229  62.935  1.00  0.00     0.085 H 
HETATM   26  C   LIG     1      -4.825  21.191  64.331  1.00  0.00    -0.060 A 
HETATM   27  C   LIG     1      -5.200  20.944  65.650  1.00  0.00    -0.075 A 
HETATM   28  H   LIG     1      -4.387  22.150  64.061  1.00  0.00     0.085 H 
HETATM   29  H   LIG     1      -5.068  21.732  66.389  1.00  0.00     0.084 H 
BRANCH  24  30
HETATM   30  S   LIG     1      -4.546  20.560  61.695  1.00  0.00     0.239 S 
HETATM   31  O   LIG     1      -3.294  19.858  61.409  1.00  0.00    -0.206 OA
HETATM   32  O   LIG     1      -4.733  21.951  61.418  1.00  0.00    -0.206 OA
BRANCH  30  33
HETATM   33  N   LIG     1      -5.728  19.748  60.816  1.00  0.00    -0.225 NA
HETATM   34  H   LIG     1      -6.611  20.249  60.858  1.00  0.00     0.136 HD
HETATM   35  H   LIG     1      -5.779  18.775  61.134  1.00  0.00     0.136 HD
ENDBRANCH  30  33
ENDBRANCH  24  30
ENDBRANCH  17  20
ENDBRANCH  13  17
ENDBRANCH   4   7
ENDBRANCH   1   3
BRANCH   1  36
HETATM   36  C   LIG     1      -9.568  13.700  68.630  1.00  0.00    -0.011 C 
HETATM   37  H   LIG     1      -9.506  12.995  69.466  1.00  0.00     0.050 H 
HETATM   38  H   LIG     1      -8.788  14.452  68.803  1.00  0.00     0.050 H 
BRANCH  36  39
HETATM   39  S   LIG     1      -9.061  12.746  67.140  1.00  0.00    -0.181 SA
HETATM   40  H   LIG     1     -10.090  13.081  66.347  1.00  0.00     0.101 HD
ENDBRANCH  36  39
ENDBRANCH   1  36
BRANCH   1  41
HETATM   41  C   LIG     1     -11.800  14.353  69.908  1.00  0.00    -0.020 C 
HETATM   42  C   LIG     1     -12.056  15.555  70.587  1.00  0.00     0.009 C 
HETATM   43  N   LIG     1     -12.885  15.716  71.640  1.00  0.00    -0.273 NA
HETATM   44  H   LIG     1     -11.588  16.494  70.311  1.00  0.00     0.115 H 
HETATM   45  C   LIG     1     -13.477  14.616  72.101  1.00  0.00     0.002 C 
HETATM   46  C   LIG     1     -13.203  13.358  71.607  1.00  0.00    -0.059 C 
HETATM   47  H   LIG     1     -14.184  14.759  72.910  1.00  0.00     0.114 H 
HETATM   48  C   LIG     1     -12.343  13.186  70.502  1.00  0.00    -0.047 C 
HETATM   49  H   LIG     1     -13.677  12.524  72.107  1.00  0.00     0.086 H 
BRANCH  48  50
HETATM   50  C   LIG     1     -12.013  11.744  70.123  1.00  0.00    -0.026 C 
HETATM   51  H   LIG     1     -10.928  11.609  70.250  1.00  0.00     0.042 H 
HETATM   52  H   LIG     1     -12.202  11.566  69.059  1.00  0.00     0.042 H 
BRANCH  50  53
HETATM   53  C   LIG     1     -12.741  10.650  70.931  1.00  0.00    -0.001 C 
HETATM   54  H   LIG     1     -13.328  10.021  70.253  1.00  0.00     0.064 H 
HETATM   55  H   LIG     1     -13.429  11.120  71.639  1.00  0.00     0.064 H 
BRANCH  53  56
HETATM   56  N   LIG     1     -11.863   9.729  71.638  1.00  0.00    -0.360 N 
HETATM   57  C   LIG     1     -12.246   8.434  71.902  1.00  0.00     0.221 C 
HETATM   58  O   LIG     1     -13.346   7.998  71.574  1.00  0.00    -0.273 OA
HETATM   59  H   LIG     1     -10.884   9.971  71.708  1.00  0.00     0.162 HD
BRANCH  57  60
HETATM   60  C   LIG     1     -11.236   7.610  72.712  1.00  0.00     0.024 C 
HETATM   61  H   LIG     1     -11.515   7.746  73.766  1.00  0.00     0.054 H 
HETATM   62  C   LIG     1     -11.379   6.110  72.385  1.00  0.00    -0.051 C 
HETATM   63  C   LIG     1     -10.765   5.736  71.030  1.00  0.00    -0.040 C 
HETATM   64  H   LIG     1     -12.435   5.814  72.387  1.00  0.00     0.034 H 
HETATM   65  H   LIG     1     -10.899   5.519  73.175  1.00  0.00     0.034 H 
HETATM   66  C   LIG     1      -9.336   6.253  70.863  1.00  0.00     0.035 C 
HETATM   67  H   LIG     1     -11.385   6.146  70.224  1.00  0.00     0.036 H 
HETATM   68  H   LIG     1     -10.784   4.646  70.927  1.00  0.00     0.036 H 
HETATM   69  H   LIG     1      -8.981   6.038  69.850  1.00  0.00     0.082 H 
HETATM   70  C   LIG     1      -9.262   7.754  71.129  1.00  0.00    -0.040 C 
HETATM   71  C   LIG     1      -9.786   8.079  72.528  1.00  0.00    -0.051 C 
HETATM   72  H   LIG     1      -9.843   8.299  70.375  1.00  0.00     0.036 H 
HETATM   73  H   LIG     1      -8.224   8.099  71.055  1.00  0.00     0.036 H 
HETATM   74  H   LIG     1      -9.673   9.150  72.714  1.00  0.00     0.034 H 
HETATM   75  H   LIG     1      -9.154   7.585  73.278  1.00  0.00     0.034 H 
BRANCH  66  76
HETATM   76  O   LIG     1      -8.450   5.607  71.776  1.00  0.00    -0.396 OA
HETATM   77  H   LIG     1      -7.990   6.285  72.299  1.00  0.00     0.210 HD
ENDBRANCH  66  76
ENDBRANCH  57  60
ENDBRANCH  53  56
ENDBRANCH  50  53
ENDBRANCH  48  50
ENDBRANCH   1  41
TORSDOF 14
ENDMDL
MODEL 4
REMARK VINA RESULT:      -6.6      5.140      8.086
REMARK  14 active torsions:
REMARK  status: ('A' for Active; 'I' for Inactive)
REMARK    1  A    between atoms: N_1  and  S_2 
REMARK    2  A    between atoms: S_2  and  C_5 
REMARK    3  A    between atoms: C_8  and  C_9 
REMARK    4  A    between atoms: C_9  and  C_10 
REMARK    5  A    between atoms: C_14  and  N_15 
REMARK       I    between atoms: N_15  and  C_16 
REMARK    6  A    between atoms: C_16  and  C_18 
REMARK    7  A    between atoms: C_18  and  C_19 
REMARK    8  A    between atoms: C_18  and  C_21 
REMARK    9  A    between atoms: C_19  and  S_20 
REMARK   10  A    between atoms: C_26  and  C_27 
REMARK   11  A    between atoms: C_27  and  C_28 
REMARK   12  A    between atoms: C_28  and  N_29 
REMARK       I    between atoms: N_29  and  C_30 
REMARK   13  A    between atoms: C_30  and  C_32 
REMARK   14  A    between atoms: C_36  and  O_38 
ROOT
HETATM    1  C   LIG     1     -10.310   7.528  70.676  1.00  0.00     0.059 C 
HETATM    2  H   LIG     1      -9.755   7.740  69.750  1.00  0.00     0.063 H 
ENDROOT
BRANCH   1   3
HETATM    3  C   LIG     1      -9.246   7.460  71.786  1.00  0.00     0.231 C 
HETATM    4  N   LIG     1      -9.273   6.338  72.603  1.00  0.00    -0.327 N 
HETATM    5  H   LIG     1     -10.046   5.691  72.479  1.00  0.00     0.169 HD
HETATM    6  O   LIG     1      -8.382   8.337  71.814  1.00  0.00    -0.272 OA
BRANCH   4   7
HETATM    7  C   LIG     1      -8.288   5.942  73.554  1.00  0.00     0.035 A 
HETATM    8  C   LIG     1      -7.507   4.793  73.429  1.00  0.00    -0.057 A 
HETATM    9  C   LIG     1      -6.629   4.409  74.449  1.00  0.00    -0.080 A 
HETATM   10  H   LIG     1      -7.566   4.147  72.559  1.00  0.00     0.086 H 
HETATM   11  C   LIG     1      -6.547   5.147  75.630  1.00  0.00    -0.076 A 
HETATM   12  H   LIG     1      -6.041   3.501  74.334  1.00  0.00     0.083 H 
HETATM   13  C   LIG     1      -7.324   6.298  75.797  1.00  0.00    -0.052 A 
HETATM   14  H   LIG     1      -5.907   4.782  76.430  1.00  0.00     0.084 H 
HETATM   15  C   LIG     1      -8.155   6.709  74.727  1.00  0.00    -0.051 A 
HETATM   16  H   LIG     1      -8.745   7.616  74.845  1.00  0.00     0.087 H 
BRANCH  13  17
HETATM   17  C   LIG     1      -7.457   6.958  77.158  1.00  0.00    -0.017 C 
HETATM   18  H   LIG     1      -8.517   7.061  77.424  1.00  0.00     0.047 H 
HETATM   19  H   LIG     1      -7.059   6.242  77.891  1.00  0.00     0.047 H 
BRANCH  17  20
HETATM   20  C   LIG     1      -6.781   8.295  77.387  1.00  0.00    -0.054 A 
HETATM   21  C   LIG     1      -7.163   9.434  76.660  1.00  0.00    -0.075 A 
HETATM   22  C   LIG     1      -6.588  10.686  76.929  1.00  0.00    -0.060 A 
HETATM   23  H   LIG     1      -7.933   9.361  75.894  1.00  0.00     0.084 H 
HETATM   24  C   LIG     1      -5.609  10.779  77.914  1.00  0.00     0.074 A 
HETATM   25  H   LIG     1      -6.911  11.560  76.372  1.00  0.00     0.085 H 
HETATM   26  C   LIG     1      -5.223   9.667  78.657  1.00  0.00    -0.060 A 
HETATM   27  C   LIG     1      -5.812   8.432  78.397  1.00  0.00    -0.075 A 
HETATM   28  H   LIG     1      -4.472   9.757  79.441  1.00  0.00     0.085 H 
HETATM   29  H   LIG     1      -5.524   7.576  79.003  1.00  0.00     0.084 H 
BRANCH  24  30
HETATM   30  S   LIG     1      -4.847  12.340  78.283  1.00  0.00     0.239 S 
HETATM   31  O   LIG     1      -3.753  12.561  77.336  1.00  0.00    -0.206 OA
HETATM   32  O   LIG     1      -4.685  12.483  79.697  1.00  0.00    -0.206 OA
BRANCH  30  33
HETATM   33  N   LIG     1      -6.051  13.429  77.842  1.00  0.00    -0.225 NA
HETATM   34  H   LIG     1      -6.474  13.155  76.961  1.00  0.00     0.136 HD
HETATM   35  H   LIG     1      -5.667  14.380  77.849  1.00  0.00     0.136 HD
ENDBRANCH  30  33
ENDBRANCH  24  30
ENDBRANCH  17  20
ENDBRANCH  13  17
ENDBRANCH   4   7
ENDBRANCH   1   3
BRANCH   1  36
HETATM   36  C   LIG     1     -10.867   6.083  70.468  1.00  0.00    -0.011 C 
HETATM   37  H   LIG     1     -11.914   6.130  70.148  1.00  0.00     0.050 H 
HETATM   38  H   LIG     1     -10.863   5.544  71.423  1.00  0.00     0.050 H 
BRANCH  36  39
HETATM   39  S   LIG     1     -10.027   4.995  69.244  1.00  0.00    -0.181 SA
HETATM   40  H   LIG     1     -10.276   3.819  69.841  1.00  0.00     0.101 HD
ENDBRANCH  36  39
ENDBRANCH   1  36
BRANCH   1  41
HETATM   41  C   LIG     1     -11.315   8.677  70.796  1.00  0.00    -0.020 C 
HETATM   42  C   LIG     1     -12.253   8.655  71.840  1.00  0.00     0.009 C 
HETATM   43  N   LIG     1     -13.100   9.651  72.174  1.00  0.00    -0.273 NA
HETATM   44  H   LIG     1     -12.381   7.798  72.494  1.00  0.00     0.115 H 
HETATM   45  C   LIG     1     -13.069  10.738  71.405  1.00  0.00     0.002 C 
HETATM   46  C   LIG     1     -12.289  10.826  70.270  1.00  0.00    -0.059 C 
HETATM   47  H   LIG     1     -13.711  11.556  71.710  1.00  0.00     0.114 H 
HETATM   48  C   LIG     1     -11.398   9.792  69.922  1.00  0.00    -0.047 C 
HETATM   49  H   LIG     1     -12.400  11.721  69.673  1.00  0.00     0.086 H 
BRANCH  48  50
HETATM   50  C   LIG     1     -10.681   9.941  68.582  1.00  0.00    -0.026 C 
HETATM   51  H   LIG     1     -11.441  10.199  67.828  1.00  0.00     0.042 H 
HETATM   52  H   LIG     1     -10.264   8.984  68.252  1.00  0.00     0.042 H 
BRANCH  50  53
HETATM   53  C   LIG     1      -9.560  10.999  68.530  1.00  0.00    -0.001 C 
HETATM   54  H   LIG     1      -8.584  10.501  68.538  1.00  0.00     0.064 H 
HETATM   55  H   LIG     1      -9.622  11.637  69.417  1.00  0.00     0.064 H 
BRANCH  53  56
HETATM   56  N   LIG     1      -9.556  11.823  67.331  1.00  0.00    -0.360 N 
HETATM   57  C   LIG     1     -10.252  13.010  67.275  1.00  0.00     0.221 C 
HETATM   58  O   LIG     1     -10.920  13.421  68.219  1.00  0.00    -0.273 OA
HETATM   59  H   LIG     1      -8.843  11.644  66.638  1.00  0.00     0.162 HD
BRANCH  57  60
HETATM   60  C   LIG     1     -10.202  13.729  65.919  1.00  0.00     0.024 C 
HETATM   61  H   LIG     1      -9.278  14.323  65.929  1.00  0.00     0.054 H 
HETATM   62  C   LIG     1     -10.084  12.707  64.771  1.00  0.00    -0.051 C 
HETATM   63  C   LIG     1     -11.409  11.995  64.471  1.00  0.00    -0.040 C 
HETATM   64  H   LIG     1      -9.323  11.951  65.005  1.00  0.00     0.034 H 
HETATM   65  H   LIG     1      -9.734  13.217  63.866  1.00  0.00     0.034 H 
HETATM   66  C   LIG     1     -12.577  12.965  64.292  1.00  0.00     0.035 C 
HETATM   67  H   LIG     1     -11.645  11.304  65.289  1.00  0.00     0.036 H 
HETATM   68  H   LIG     1     -11.282  11.389  63.567  1.00  0.00     0.036 H 
HETATM   69  H   LIG     1     -13.508  12.403  64.170  1.00  0.00     0.082 H 
HETATM   70  C   LIG     1     -12.693  13.907  65.487  1.00  0.00    -0.040 C 
HETATM   71  C   LIG     1     -11.388  14.677  65.694  1.00  0.00    -0.051 C 
HETATM   72  H   LIG     1     -12.941  13.339  66.391  1.00  0.00     0.036 H 
HETATM   73  H   LIG     1     -13.502  14.629  65.320  1.00  0.00     0.036 H 
HETATM   74  H   LIG     1     -11.514  15.383  66.520  1.00  0.00     0.034 H 
HETATM   75  H   LIG     1     -11.185  15.296  64.810  1.00  0.00     0.034 H 
BRANCH  66  76
HETATM   76  O   LIG     1     -12.400  13.765  63.124  1.00  0.00    -0.396 OA
HETATM   77  H   LIG     1     -11.671  13.396  62.598  1.00  0.00     0.210 HD
ENDBRANCH  66  76
ENDBRANCH  57  60
ENDBRANCH  53  56
ENDBRANCH  50  53
ENDBRANCH  48  50
ENDBRANCH   1  41
TORSDOF 14
ENDMDL
MODEL 5
REMARK VINA RESULT:      -6.6      3.174      6.902
REMARK  14 active torsions:
REMARK  status: ('A' for Active; 'I' for Inactive)
REMARK    1  A    between atoms: N_1  and  S_2 
REMARK    2  A    between atoms: S_2  and  C_5 
REMARK    3  A    between atoms: C_8  and  C_9 
REMARK    4  A    between atoms: C_9  and  C_10 
REMARK    5  A    between atoms: C_14  and  N_15 
REMARK       I    between atoms: N_15  and  C_16 
REMARK    6  A    between atoms: C_16  and  C_18 
REMARK    7  A    between atoms: C_18  and  C_19 
REMARK    8  A    between atoms: C_18  and  C_21 
REMARK    9  A    between atoms: C_19  and  S_20 
REMARK   10  A    between atoms: C_26  and  C_27 
REMARK   11  A    between atoms: C_27  and  C_28 
REMARK   12  A    between atoms: C_28  and  N_29 
REMARK       I    between atoms: N_29  and  C_30 
REMARK   13  A    between atoms: C_30  and  C_32 
REMARK   14  A    between atoms: C_36  and  O_38 
ROOT
HETATM    1  C   LIG     1     -11.299  15.854  68.973  1.00  0.00     0.059 C 
HETATM    2  H   LIG     1     -12.185  16.508  68.949  1.00  0.00     0.063 H 
ENDROOT
BRANCH   1   3
HETATM    3  C   LIG     1     -11.587  14.738  67.952  1.00  0.00     0.231 C 
HETATM    4  N   LIG     1     -11.301  15.024  66.624  1.00  0.00    -0.327 N 
HETATM    5  H   LIG     1     -11.018  15.973  66.404  1.00  0.00     0.169 HD
HETATM    6  O   LIG     1     -11.945  13.641  68.381  1.00  0.00    -0.272 OA
BRANCH   4   7
HETATM    7  C   LIG     1     -11.283  14.108  65.532  1.00  0.00     0.035 A 
HETATM    8  C   LIG     1     -12.228  14.106  64.506  1.00  0.00    -0.057 A 
HETATM    9  C   LIG     1     -12.210  13.115  63.518  1.00  0.00    -0.080 A 
HETATM   10  H   LIG     1     -13.018  14.848  64.448  1.00  0.00     0.086 H 
HETATM   11  C   LIG     1     -11.271  12.086  63.562  1.00  0.00    -0.076 A 
HETATM   12  H   LIG     1     -12.967  13.127  62.737  1.00  0.00     0.083 H 
HETATM   13  C   LIG     1     -10.314  12.048  64.582  1.00  0.00    -0.052 A 
HETATM   14  H   LIG     1     -11.329  11.294  62.819  1.00  0.00     0.084 H 
HETATM   15  C   LIG     1     -10.305  13.096  65.534  1.00  0.00    -0.051 A 
HETATM   16  H   LIG     1      -9.549  13.081  66.317  1.00  0.00     0.087 H 
BRANCH  13  17
HETATM   17  C   LIG     1      -9.465  10.810  64.809  1.00  0.00    -0.017 C 
HETATM   18  H   LIG     1      -9.416  10.214  63.889  1.00  0.00     0.047 H 
HETATM   19  H   LIG     1      -8.435  11.163  64.961  1.00  0.00     0.047 H 
BRANCH  17  20
HETATM   20  C   LIG     1      -9.821   9.883  65.953  1.00  0.00    -0.054 A 
HETATM   21  C   LIG     1      -9.501   8.516  65.906  1.00  0.00    -0.075 A 
HETATM   22  C   LIG     1      -9.763   7.677  66.999  1.00  0.00    -0.060 A 
HETATM   23  H   LIG     1      -9.016   8.099  65.024  1.00  0.00     0.084 H 
HETATM   24  C   LIG     1     -10.375   8.214  68.128  1.00  0.00     0.074 A 
HETATM   25  H   LIG     1      -9.488   6.627  66.954  1.00  0.00     0.085 H 
HETATM   26  C   LIG     1     -10.691   9.567  68.205  1.00  0.00    -0.060 A 
HETATM   27  C   LIG     1     -10.409  10.398  67.122  1.00  0.00    -0.075 A 
HETATM   28  H   LIG     1     -11.148   9.980  69.102  1.00  0.00     0.085 H 
HETATM   29  H   LIG     1     -10.633  11.459  67.203  1.00  0.00     0.084 H 
BRANCH  24  30
HETATM   30  S   LIG     1     -10.735   7.188  69.533  1.00  0.00     0.239 S 
HETATM   31  O   LIG     1     -11.135   5.864  69.053  1.00  0.00    -0.206 OA
HETATM   32  O   LIG     1     -11.497   7.925  70.493  1.00  0.00    -0.206 OA
BRANCH  30  33
HETATM   33  N   LIG     1      -9.210   6.980  70.212  1.00  0.00    -0.225 NA
HETATM   34  H   LIG     1      -8.759   6.155  69.829  1.00  0.00     0.136 HD
HETATM   35  H   LIG     1      -9.291   6.980  71.235  1.00  0.00     0.136 HD
ENDBRANCH  30  33
ENDBRANCH  24  30
ENDBRANCH  17  20
ENDBRANCH  13  17
ENDBRANCH   4   7
ENDBRANCH   1   3
BRANCH   1  36
HETATM   36  C   LIG     1     -11.334  15.212  70.397  1.00  0.00    -0.011 C 
HETATM   37  H   LIG     1     -10.469  15.550  70.978  1.00  0.00     0.050 H 
HETATM   38  H   LIG     1     -11.239  14.122  70.312  1.00  0.00     0.050 H 
BRANCH  36  39
HETATM   39  S   LIG     1     -12.800  15.533  71.460  1.00  0.00    -0.181 SA
HETATM   40  H   LIG     1     -13.444  16.376  70.637  1.00  0.00     0.101 HD
ENDBRANCH  36  39
ENDBRANCH   1  36
BRANCH   1  41
HETATM   41  C   LIG     1     -10.127  16.778  68.627  1.00  0.00    -0.020 C 
HETATM   42  C   LIG     1     -10.398  18.066  68.140  1.00  0.00     0.009 C 
HETATM   43  N   LIG     1      -9.495  19.047  67.931  1.00  0.00    -0.273 NA
HETATM   44  H   LIG     1     -11.398  18.395  67.878  1.00  0.00     0.115 H 
HETATM   45  C   LIG     1      -8.221  18.739  68.170  1.00  0.00     0.002 C 
HETATM   46  C   LIG     1      -7.813  17.469  68.521  1.00  0.00    -0.059 C 
HETATM   47  H   LIG     1      -7.506  19.546  68.055  1.00  0.00     0.114 H 
HETATM   48  C   LIG     1      -8.754  16.443  68.746  1.00  0.00    -0.047 C 
HETATM   49  H   LIG     1      -6.748  17.307  68.611  1.00  0.00     0.086 H 
BRANCH  48  50
HETATM   50  C   LIG     1      -8.185  15.050  69.004  1.00  0.00    -0.026 C 
HETATM   51  H   LIG     1      -8.384  14.441  68.109  1.00  0.00     0.042 H 
HETATM   52  H   LIG     1      -8.723  14.551  69.817  1.00  0.00     0.042 H 
BRANCH  50  53
HETATM   53  C   LIG     1      -6.675  14.985  69.315  1.00  0.00    -0.001 C 
HETATM   54  H   LIG     1      -6.443  15.655  70.151  1.00  0.00     0.064 H 
HETATM   55  H   LIG     1      -6.110  15.325  68.442  1.00  0.00     0.064 H 
BRANCH  53  56
HETATM   56  N   LIG     1      -6.196  13.676  69.732  1.00  0.00    -0.360 N 
HETATM   57  C   LIG     1      -5.447  12.886  68.890  1.00  0.00     0.221 C 
HETATM   58  O   LIG     1      -5.163  13.234  67.747  1.00  0.00    -0.273 OA
HETATM   59  H   LIG     1      -6.204  13.464  70.720  1.00  0.00     0.162 HD
BRANCH  57  60
HETATM   60  C   LIG     1      -5.074  11.507  69.453  1.00  0.00     0.024 C 
HETATM   61  H   LIG     1      -4.187  11.669  70.080  1.00  0.00     0.054 H 
HETATM   62  C   LIG     1      -6.197  10.976  70.366  1.00  0.00    -0.051 C 
HETATM   63  C   LIG     1      -7.405  10.452  69.579  1.00  0.00    -0.040 C 
HETATM   64  H   LIG     1      -6.538  11.761  71.053  1.00  0.00     0.034 H 
HETATM   65  H   LIG     1      -5.801  10.173  70.998  1.00  0.00     0.034 H 
HETATM   66  C   LIG     1      -7.013   9.468  68.476  1.00  0.00     0.035 C 
HETATM   67  H   LIG     1      -7.939  11.296  69.126  1.00  0.00     0.036 H 
HETATM   68  H   LIG     1      -8.097   9.974  70.280  1.00  0.00     0.036 H 
HETATM   69  H   LIG     1      -7.898   9.197  67.891  1.00  0.00     0.082 H 
HETATM   70  C   LIG     1      -5.951  10.068  67.559  1.00  0.00    -0.040 C 
HETATM   71  C   LIG     1      -4.719  10.485  68.364  1.00  0.00    -0.051 C 
HETATM   72  H   LIG     1      -6.361  10.933  67.025  1.00  0.00     0.036 H 
HETATM   73  H   LIG     1      -5.644   9.333  66.806  1.00  0.00     0.036 H 
HETATM   74  H   LIG     1      -3.954  10.861  67.679  1.00  0.00     0.034 H 
HETATM   75  H   LIG     1      -4.276   9.599  68.838  1.00  0.00     0.034 H 
BRANCH  66  76
HETATM   76  O   LIG     1      -6.479   8.267  69.032  1.00  0.00    -0.396 OA
HETATM   77  H   LIG     1      -7.065   7.527  68.801  1.00  0.00     0.210 HD
ENDBRANCH  66  76
ENDBRANCH  57  60
ENDBRANCH  53  56
ENDBRANCH  50  53
ENDBRANCH  48  50
ENDBRANCH   1  41
TORSDOF 14
ENDMDL
MODEL 6
REMARK VINA RESULT:      -6.6      3.680      6.245
REMARK  14 active torsions:
REMARK  status: ('A' for Active; 'I' for Inactive)
REMARK    1  A    between atoms: N_1  and  S_2 
REMARK    2  A    between atoms: S_2  and  C_5 
REMARK    3  A    between atoms: C_8  and  C_9 
REMARK    4  A    between atoms: C_9  and  C_10 
REMARK    5  A    between atoms: C_14  and  N_15 
REMARK       I    between atoms: N_15  and  C_16 
REMARK    6  A    between atoms: C_16  and  C_18 
REMARK    7  A    between atoms: C_18  and  C_19 
REMARK    8  A    between atoms: C_18  and  C_21 
REMARK    9  A    between atoms: C_19  and  S_20 
REMARK   10  A    between atoms: C_26  and  C_27 
REMARK   11  A    between atoms: C_27  and  C_28 
REMARK   12  A    between atoms: C_28  and  N_29 
REMARK       I    between atoms: N_29  and  C_30 
REMARK   13  A    between atoms: C_30  and  C_32 
REMARK   14  A    between atoms: C_36  and  O_38 
ROOT
HETATM    1  C   LIG     1      -5.514  15.237  68.936  1.00  0.00     0.059 C 
HETATM    2  H   LIG     1      -5.570  15.309  70.033  1.00  0.00     0.063 H 
ENDROOT
BRANCH   1   3
HETATM    3  C   LIG     1      -6.927  15.578  68.430  1.00  0.00     0.231 C 
HETATM    4  N   LIG     1      -7.285  15.059  67.193  1.00  0.00    -0.327 N 
HETATM    5  H   LIG     1      -6.564  14.578  66.665  1.00  0.00     0.169 HD
HETATM    6  O   LIG     1      -7.682  16.188  69.188  1.00  0.00    -0.272 OA
BRANCH   4   7
HETATM    7  C   LIG     1      -8.582  15.055  66.605  1.00  0.00     0.035 A 
HETATM    8  C   LIG     1      -9.310  16.212  66.324  1.00  0.00    -0.057 A 
HETATM    9  C   LIG     1     -10.621  16.134  65.839  1.00  0.00    -0.080 A 
HETATM   10  H   LIG     1      -8.903  17.204  66.491  1.00  0.00     0.086 H 
HETATM   11  C   LIG     1     -11.240  14.897  65.665  1.00  0.00    -0.076 A 
HETATM   12  H   LIG     1     -11.172  17.051  65.641  1.00  0.00     0.083 H 
HETATM   13  C   LIG     1     -10.547  13.715  65.948  1.00  0.00    -0.052 A 
HETATM   14  H   LIG     1     -12.282  14.874  65.354  1.00  0.00     0.084 H 
HETATM   15  C   LIG     1      -9.200  13.812  66.372  1.00  0.00    -0.051 A 
HETATM   16  H   LIG     1      -8.651  12.894  66.572  1.00  0.00     0.087 H 
BRANCH  13  17
HETATM   17  C   LIG     1     -11.274  12.385  66.028  1.00  0.00    -0.017 C 
HETATM   18  H   LIG     1     -12.311  12.502  65.689  1.00  0.00     0.047 H 
HETATM   19  H   LIG     1     -10.811  11.731  65.275  1.00  0.00     0.047 H 
BRANCH  17  20
HETATM   20  C   LIG     1     -11.292  11.645  67.351  1.00  0.00    -0.054 A 
HETATM   21  C   LIG     1     -11.861  12.223  68.497  1.00  0.00    -0.075 A 
HETATM   22  C   LIG     1     -11.944  11.505  69.700  1.00  0.00    -0.060 A 
HETATM   23  H   LIG     1     -12.269  13.232  68.455  1.00  0.00     0.084 H 
HETATM   24  C   LIG     1     -11.428  10.214  69.749  1.00  0.00     0.074 A 
HETATM   25  H   LIG     1     -12.407  11.960  70.570  1.00  0.00     0.085 H 
HETATM   26  C   LIG     1     -10.872   9.613  68.624  1.00  0.00    -0.060 A 
HETATM   27  C   LIG     1     -10.810  10.326  67.429  1.00  0.00    -0.075 A 
HETATM   28  H   LIG     1     -10.492   8.594  68.669  1.00  0.00     0.085 H 
HETATM   29  H   LIG     1     -10.400   9.838  66.547  1.00  0.00     0.084 H 
BRANCH  24  30
HETATM   30  S   LIG     1     -11.504   9.269  71.252  1.00  0.00     0.239 S 
HETATM   31  O   LIG     1     -12.581   9.805  72.086  1.00  0.00    -0.206 OA
HETATM   32  O   LIG     1     -10.183   9.039  71.751  1.00  0.00    -0.206 OA
BRANCH  30  33
HETATM   33  N   LIG     1     -12.058   7.781  70.701  1.00  0.00    -0.225 NA
HETATM   34  H   LIG     1     -12.440   7.866  69.764  1.00  0.00     0.136 HD
HETATM   35  H   LIG     1     -12.710   7.386  71.388  1.00  0.00     0.136 HD
ENDBRANCH  30  33
ENDBRANCH  24  30
ENDBRANCH  17  20
ENDBRANCH  13  17
ENDBRANCH   4   7
ENDBRANCH   1   3
BRANCH   1  36
HETATM   36  C   LIG     1      -5.268  13.718  68.663  1.00  0.00    -0.011 C 
HETATM   37  H   LIG     1      -4.193  13.508  68.670  1.00  0.00     0.050 H 
HETATM   38  H   LIG     1      -5.624  13.462  67.657  1.00  0.00     0.050 H 
BRANCH  36  39
HETATM   39  S   LIG     1      -6.018  12.495  69.816  1.00  0.00    -0.181 SA
HETATM   40  H   LIG     1      -5.943  11.419  69.018  1.00  0.00     0.101 HD
ENDBRANCH  36  39
ENDBRANCH   1  36
BRANCH   1  41
HETATM   41  C   LIG     1      -4.415  16.228  68.539  1.00  0.00    -0.020 C 
HETATM   42  C   LIG     1      -3.552  15.898  67.483  1.00  0.00     0.009 C 
HETATM   43  N   LIG     1      -2.638  16.712  66.915  1.00  0.00    -0.273 NA
HETATM   44  H   LIG     1      -3.547  14.919  67.015  1.00  0.00     0.115 H 
HETATM   45  C   LIG     1      -2.519  17.929  67.445  1.00  0.00     0.002 C 
HETATM   46  C   LIG     1      -3.212  18.324  68.569  1.00  0.00    -0.059 C 
HETATM   47  H   LIG     1      -1.823  18.598  66.950  1.00  0.00     0.114 H 
HETATM   48  C   LIG     1      -4.173  17.480  69.161  1.00  0.00    -0.047 C 
HETATM   49  H   LIG     1      -2.980  19.304  68.965  1.00  0.00     0.086 H 
BRANCH  48  50
HETATM   50  C   LIG     1      -4.786  17.968  70.471  1.00  0.00    -0.026 C 
HETATM   51  H   LIG     1      -3.972  18.394  71.078  1.00  0.00     0.042 H 
HETATM   52  H   LIG     1      -5.174  17.130  71.059  1.00  0.00     0.042 H 
BRANCH  50  53
HETATM   53  C   LIG     1      -5.904  19.024  70.341  1.00  0.00    -0.001 C 
HETATM   54  H   LIG     1      -5.512  20.010  70.617  1.00  0.00     0.064 H 
HETATM   55  H   LIG     1      -6.717  18.778  71.029  1.00  0.00     0.064 H 
BRANCH  53  56
HETATM   56  N   LIG     1      -6.431  19.189  68.995  1.00  0.00    -0.360 N 
HETATM   57  C   LIG     1      -6.152  20.311  68.248  1.00  0.00     0.221 C 
HETATM   58  O   LIG     1      -5.463  21.230  68.683  1.00  0.00    -0.273 OA
HETATM   59  H   LIG     1      -6.792  18.370  68.526  1.00  0.00     0.162 HD
BRANCH  57  60
HETATM   60  C   LIG     1      -6.836  20.366  66.875  1.00  0.00     0.024 C 
HETATM   61  H   LIG     1      -7.760  20.942  67.024  1.00  0.00     0.054 H 
HETATM   62  C   LIG     1      -5.963  21.140  65.868  1.00  0.00    -0.051 C 
HETATM   63  C   LIG     1      -4.769  20.321  65.364  1.00  0.00    -0.040 C 
HETATM   64  H   LIG     1      -5.589  22.069  66.317  1.00  0.00     0.034 H 
HETATM   65  H   LIG     1      -6.580  21.445  65.014  1.00  0.00     0.034 H 
HETATM   66  C   LIG     1      -5.169  18.932  64.866  1.00  0.00     0.035 C 
HETATM   67  H   LIG     1      -4.037  20.209  66.172  1.00  0.00     0.036 H 
HETATM   68  H   LIG     1      -4.276  20.880  64.561  1.00  0.00     0.036 H 
HETATM   69  H   LIG     1      -4.273  18.360  64.604  1.00  0.00     0.082 H 
HETATM   70  C   LIG     1      -5.970  18.181  65.926  1.00  0.00    -0.040 C 
HETATM   71  C   LIG     1      -7.210  18.980  66.330  1.00  0.00    -0.051 C 
HETATM   72  H   LIG     1      -5.344  17.989  66.805  1.00  0.00     0.036 H 
HETATM   73  H   LIG     1      -6.293  17.209  65.535  1.00  0.00     0.036 H 
HETATM   74  H   LIG     1      -7.794  18.398  67.049  1.00  0.00     0.034 H 
HETATM   75  H   LIG     1      -7.864  19.106  65.457  1.00  0.00     0.034 H 
BRANCH  66  76
HETATM   76  O   LIG     1      -5.979  19.025  63.695  1.00  0.00    -0.396 OA
HETATM   77  H   LIG     1      -5.452  18.750  62.926  1.00  0.00     0.210 HD
ENDBRANCH  66  76
ENDBRANCH  57  60
ENDBRANCH  53  56
ENDBRANCH  50  53
ENDBRANCH  48  50
ENDBRANCH   1  41
TORSDOF 14
ENDMDL
MODEL 7
REMARK VINA RESULT:      -6.4      4.101     10.337
REMARK  14 active torsions:
REMARK  status: ('A' for Active; 'I' for Inactive)
REMARK    1  A    between atoms: N_1  and  S_2 
REMARK    2  A    between atoms: S_2  and  C_5 
REMARK    3  A    between atoms: C_8  and  C_9 
REMARK    4  A    between atoms: C_9  and  C_10 
REMARK    5  A    between atoms: C_14  and  N_15 
REMARK       I    between atoms: N_15  and  C_16 
REMARK    6  A    between atoms: C_16  and  C_18 
REMARK    7  A    between atoms: C_18  and  C_19 
REMARK    8  A    between atoms: C_18  and  C_21 
REMARK    9  A    between atoms: C_19  and  S_20 
REMARK   10  A    between atoms: C_26  and  C_27 
REMARK   11  A    between atoms: C_27  and  C_28 
REMARK   12  A    between atoms: C_28  and  N_29 
REMARK       I    between atoms: N_29  and  C_30 
REMARK   13  A    between atoms: C_30  and  C_32 
REMARK   14  A    between atoms: C_36  and  O_38 
ROOT
HETATM    1  C   LIG     1      -9.174   5.467  74.811  1.00  0.00     0.059 C 
HETATM    2  H   LIG     1      -8.080   5.422  74.921  1.00  0.00     0.063 H 
ENDROOT
BRANCH   1   3
HETATM    3  C   LIG     1      -9.452   6.755  74.015  1.00  0.00     0.231 C 
HETATM    4  N   LIG     1     -10.517   6.715  73.125  1.00  0.00    -0.327 N 
HETATM    5  H   LIG     1     -10.975   5.819  72.987  1.00  0.00     0.169 HD
HETATM    6  O   LIG     1      -8.794   7.758  74.288  1.00  0.00    -0.272 OA
BRANCH   4   7
HETATM    7  C   LIG     1     -11.101   7.815  72.432  1.00  0.00     0.035 A 
HETATM    8  C   LIG     1     -12.473   8.064  72.388  1.00  0.00    -0.057 A 
HETATM    9  C   LIG     1     -12.987   9.105  71.606  1.00  0.00    -0.080 A 
HETATM   10  H   LIG     1     -13.187   7.454  72.931  1.00  0.00     0.086 H 
HETATM   11  C   LIG     1     -12.141   9.888  70.822  1.00  0.00    -0.076 A 
HETATM   12  H   LIG     1     -14.062   9.269  71.577  1.00  0.00     0.083 H 
HETATM   13  C   LIG     1     -10.761   9.661  70.831  1.00  0.00    -0.052 A 
HETATM   14  H   LIG     1     -12.580  10.642  70.173  1.00  0.00     0.084 H 
HETATM   15  C   LIG     1     -10.252   8.649  71.680  1.00  0.00    -0.051 A 
HETATM   16  H   LIG     1      -9.176   8.484  71.706  1.00  0.00     0.087 H 
BRANCH  13  17
HETATM   17  C   LIG     1      -9.857  10.308  69.796  1.00  0.00    -0.017 C 
HETATM   18  H   LIG     1      -9.160  11.000  70.286  1.00  0.00     0.047 H 
HETATM   19  H   LIG     1      -9.217   9.508  69.398  1.00  0.00     0.047 H 
BRANCH  17  20
HETATM   20  C   LIG     1     -10.494  11.031  68.626  1.00  0.00    -0.054 A 
HETATM   21  C   LIG     1     -11.061  12.306  68.783  1.00  0.00    -0.075 A 
HETATM   22  C   LIG     1     -11.581  13.003  67.682  1.00  0.00    -0.060 A 
HETATM   23  H   LIG     1     -11.078  12.779  69.764  1.00  0.00     0.084 H 
HETATM   24  C   LIG     1     -11.550  12.400  66.428  1.00  0.00     0.074 A 
HETATM   25  H   LIG     1     -11.995  13.998  67.818  1.00  0.00     0.085 H 
HETATM   26  C   LIG     1     -10.982  11.143  66.244  1.00  0.00    -0.060 A 
HETATM   27  C   LIG     1     -10.452  10.465  67.339  1.00  0.00    -0.075 A 
HETATM   28  H   LIG     1     -10.944  10.691  65.255  1.00  0.00     0.085 H 
HETATM   29  H   LIG     1      -9.984   9.496  67.180  1.00  0.00     0.084 H 
BRANCH  24  30
HETATM   30  S   LIG     1     -12.204  13.241  65.007  1.00  0.00     0.239 S 
HETATM   31  O   LIG     1     -12.829  12.252  64.126  1.00  0.00    -0.206 OA
HETATM   32  O   LIG     1     -11.262  14.208  64.535  1.00  0.00    -0.206 OA
BRANCH  30  33
HETATM   33  N   LIG     1     -13.475  14.117  65.673  1.00  0.00    -0.225 NA
HETATM   34  H   LIG     1     -13.261  14.385  66.629  1.00  0.00     0.136 HD
HETATM   35  H   LIG     1     -14.346  13.585  65.568  1.00  0.00     0.136 HD
ENDBRANCH  30  33
ENDBRANCH  24  30
ENDBRANCH  17  20
ENDBRANCH  13  17
ENDBRANCH   4   7
ENDBRANCH   1   3
BRANCH   1  36
HETATM   36  C   LIG     1      -9.698   5.690  76.266  1.00  0.00    -0.011 C 
HETATM   37  H   LIG     1     -10.189   4.780  76.628  1.00  0.00     0.050 H 
HETATM   38  H   LIG     1     -10.466   6.474  76.266  1.00  0.00     0.050 H 
BRANCH  36  39
HETATM   39  S   LIG     1      -8.480   6.145  77.569  1.00  0.00    -0.181 SA
HETATM   40  H   LIG     1      -8.604   5.046  78.329  1.00  0.00     0.101 HD
ENDBRANCH  36  39
ENDBRANCH   1  36
BRANCH   1  41
HETATM   41  C   LIG     1      -9.546   4.161  74.103  1.00  0.00    -0.020 C 
HETATM   42  C   LIG     1     -10.482   3.305  74.704  1.00  0.00     0.009 C 
HETATM   43  N   LIG     1     -11.026   2.201  74.150  1.00  0.00    -0.273 NA
HETATM   44  H   LIG     1     -10.862   3.465  75.708  1.00  0.00     0.115 H 
HETATM   45  C   LIG     1     -10.593   1.875  72.933  1.00  0.00     0.002 C 
HETATM   46  C   LIG     1      -9.579   2.558  72.294  1.00  0.00    -0.059 C 
HETATM   47  H   LIG     1     -11.073   1.021  72.469  1.00  0.00     0.114 H 
HETATM   48  C   LIG     1      -9.013   3.715  72.867  1.00  0.00    -0.047 C 
HETATM   49  H   LIG     1      -9.248   2.161  71.344  1.00  0.00     0.086 H 
BRANCH  48  50
HETATM   50  C   LIG     1      -7.815   4.314  72.134  1.00  0.00    -0.026 C 
HETATM   51  H   LIG     1      -6.910   3.822  72.523  1.00  0.00     0.042 H 
HETATM   52  H   LIG     1      -7.694   5.374  72.381  1.00  0.00     0.042 H 
BRANCH  50  53
HETATM   53  C   LIG     1      -7.825   4.175  70.597  1.00  0.00    -0.001 C 
HETATM   54  H   LIG     1      -8.549   3.407  70.303  1.00  0.00     0.064 H 
HETATM   55  H   LIG     1      -6.836   3.857  70.255  1.00  0.00     0.064 H 
BRANCH  53  56
HETATM   56  N   LIG     1      -8.232   5.374  69.880  1.00  0.00    -0.360 N 
HETATM   57  C   LIG     1      -9.548   5.596  69.543  1.00  0.00     0.221 C 
HETATM   58  O   LIG     1     -10.436   4.792  69.813  1.00  0.00    -0.273 OA
HETATM   59  H   LIG     1      -7.585   6.150  69.855  1.00  0.00     0.162 HD
BRANCH  57  60
HETATM   60  C   LIG     1      -9.804   6.873  68.731  1.00  0.00     0.024 C 
HETATM   61  H   LIG     1     -10.217   7.602  69.442  1.00  0.00     0.054 H 
HETATM   62  C   LIG     1      -8.477   7.447  68.196  1.00  0.00    -0.051 C 
HETATM   63  C   LIG     1      -7.931   6.661  66.997  1.00  0.00    -0.040 C 
HETATM   64  H   LIG     1      -7.716   7.459  68.986  1.00  0.00     0.034 H 
HETATM   65  H   LIG     1      -8.627   8.494  67.905  1.00  0.00     0.034 H 
HETATM   66  C   LIG     1      -8.975   6.445  65.902  1.00  0.00     0.035 C 
HETATM   67  H   LIG     1      -7.568   5.684  67.337  1.00  0.00     0.036 H 
HETATM   68  H   LIG     1      -7.067   7.200  66.592  1.00  0.00     0.036 H 
HETATM   69  H   LIG     1      -8.561   5.805  65.117  1.00  0.00     0.082 H 
HETATM   70  C   LIG     1     -10.241   5.811  66.472  1.00  0.00    -0.040 C 
HETATM   71  C   LIG     1     -10.817   6.674  67.595  1.00  0.00    -0.051 C 
HETATM   72  H   LIG     1     -10.022   4.804  66.847  1.00  0.00     0.036 H 
HETATM   73  H   LIG     1     -10.999   5.710  65.685  1.00  0.00     0.036 H 
HETATM   74  H   LIG     1     -11.751   6.227  67.948  1.00  0.00     0.034 H 
HETATM   75  H   LIG     1     -11.099   7.656  67.193  1.00  0.00     0.034 H 
BRANCH  66  76
HETATM   76  O   LIG     1      -9.345   7.685  65.299  1.00  0.00    -0.396 OA
HETATM   77  H   LIG     1     -10.023   7.515  64.624  1.00  0.00     0.210 HD
ENDBRANCH  66  76
ENDBRANCH  57  60
ENDBRANCH  53  56
ENDBRANCH  50  53
ENDBRANCH  48  50
ENDBRANCH   1  41
TORSDOF 14
ENDMDL
MODEL 8
REMARK VINA RESULT:      -6.4      3.311      8.863
REMARK  14 active torsions:
REMARK  status: ('A' for Active; 'I' for Inactive)
REMARK    1  A    between atoms: N_1  and  S_2 
REMARK    2  A    between atoms: S_2  and  C_5 
REMARK    3  A    between atoms: C_8  and  C_9 
REMARK    4  A    between atoms: C_9  and  C_10 
REMARK    5  A    between atoms: C_14  and  N_15 
REMARK       I    between atoms: N_15  and  C_16 
REMARK    6  A    between atoms: C_16  and  C_18 
REMARK    7  A    between atoms: C_18  and  C_19 
REMARK    8  A    between atoms: C_18  and  C_21 
REMARK    9  A    between atoms: C_19  and  S_20 
REMARK   10  A    between atoms: C_26  and  C_27 
REMARK   11  A    between atoms: C_27  and  C_28 
REMARK   12  A    between atoms: C_28  and  N_29 
REMARK       I    between atoms: N_29  and  C_30 
REMARK   13  A    between atoms: C_30  and  C_32 
REMARK   14  A    between atoms: C_36  and  O_38 
ROOT
HETATM    1  C   LIG     1      -9.877   5.392  71.103  1.00  0.00     0.059 C 
HETATM    2  H   LIG     1      -8.949   5.893  71.419  1.00  0.00     0.063 H 
ENDROOT
BRANCH   1   3
HETATM    3  C   LIG     1     -10.904   6.520  70.898  1.00  0.00     0.231 C 
HETATM    4  N   LIG     1     -10.509   7.795  71.282  1.00  0.00    -0.327 N 
HETATM    5  H   LIG     1      -9.617   7.881  71.758  1.00  0.00     0.169 HD
HETATM    6  O   LIG     1     -11.954   6.248  70.316  1.00  0.00    -0.272 OA
BRANCH   4   7
HETATM    7  C   LIG     1     -11.182   9.021  71.011  1.00  0.00     0.035 A 
HETATM    8  C   LIG     1     -12.160   9.568  71.842  1.00  0.00    -0.057 A 
HETATM    9  C   LIG     1     -12.854  10.725  71.466  1.00  0.00    -0.080 A 
HETATM   10  H   LIG     1     -12.435   9.112  72.787  1.00  0.00     0.086 H 
HETATM   11  C   LIG     1     -12.609  11.330  70.235  1.00  0.00    -0.076 A 
HETATM   12  H   LIG     1     -13.622  11.124  72.125  1.00  0.00     0.083 H 
HETATM   13  C   LIG     1     -11.644  10.803  69.369  1.00  0.00    -0.052 A 
HETATM   14  H   LIG     1     -13.214  12.186  69.944  1.00  0.00     0.084 H 
HETATM   15  C   LIG     1     -10.905   9.674  69.795  1.00  0.00    -0.051 A 
HETATM   16  H   LIG     1     -10.139   9.274  69.134  1.00  0.00     0.087 H 
BRANCH  13  17
HETATM   17  C   LIG     1     -11.550  11.273  67.928  1.00  0.00    -0.017 C 
HETATM   18  H   LIG     1     -10.955  10.563  67.339  1.00  0.00     0.047 H 
HETATM   19  H   LIG     1     -12.564  11.195  67.509  1.00  0.00     0.047 H 
BRANCH  17  20
HETATM   20  C   LIG     1     -11.029  12.668  67.651  1.00  0.00    -0.054 A 
HETATM   21  C   LIG     1      -9.826  13.119  68.219  1.00  0.00    -0.075 A 
HETATM   22  C   LIG     1      -9.308  14.383  67.899  1.00  0.00    -0.060 A 
HETATM   23  H   LIG     1      -9.267  12.475  68.896  1.00  0.00     0.084 H 
HETATM   24  C   LIG     1     -10.020  15.201  67.026  1.00  0.00     0.074 A 
HETATM   25  H   LIG     1      -8.365  14.706  68.330  1.00  0.00     0.085 H 
HETATM   26  C   LIG     1     -11.207  14.772  66.440  1.00  0.00    -0.060 A 
HETATM   27  C   LIG     1     -11.705  13.508  66.749  1.00  0.00    -0.075 A 
HETATM   28  H   LIG     1     -11.743  15.412  65.742  1.00  0.00     0.085 H 
HETATM   29  H   LIG     1     -12.618  13.172  66.263  1.00  0.00     0.084 H 
BRANCH  24  30
HETATM   30  S   LIG     1      -9.407  16.812  66.599  1.00  0.00     0.239 S 
HETATM   31  O   LIG     1     -10.486  17.565  65.957  1.00  0.00    -0.206 OA
HETATM   32  O   LIG     1      -8.098  16.703  66.033  1.00  0.00    -0.206 OA
BRANCH  30  33
HETATM   33  N   LIG     1      -9.202  17.520  68.110  1.00  0.00    -0.225 NA
HETATM   34  H   LIG     1      -8.606  16.943  68.696  1.00  0.00     0.136 HD
HETATM   35  H   LIG     1     -10.121  17.726  68.516  1.00  0.00     0.136 HD
ENDBRANCH  30  33
ENDBRANCH  24  30
ENDBRANCH  17  20
ENDBRANCH  13  17
ENDBRANCH   4   7
ENDBRANCH   1   3
BRANCH   1  36
HETATM   36  C   LIG     1     -10.319   4.575  72.360  1.00  0.00    -0.011 C 
HETATM   37  H   LIG     1      -9.679   3.692  72.473  1.00  0.00     0.050 H 
HETATM   38  H   LIG     1     -11.339   4.198  72.216  1.00  0.00     0.050 H 
BRANCH  36  39
HETATM   39  S   LIG     1     -10.293   5.416  73.997  1.00  0.00    -0.181 SA
HETATM   40  H   LIG     1     -10.660   4.367  74.749  1.00  0.00     0.101 HD
ENDBRANCH  36  39
ENDBRANCH   1  36
BRANCH   1  41
HETATM   41  C   LIG     1      -9.487   4.617  69.841  1.00  0.00    -0.020 C 
HETATM   42  C   LIG     1      -9.617   3.220  69.833  1.00  0.00     0.009 C 
HETATM   43  N   LIG     1      -9.462   2.409  68.765  1.00  0.00    -0.273 NA
HETATM   44  H   LIG     1      -9.863   2.650  70.723  1.00  0.00     0.115 H 
HETATM   45  C   LIG     1      -9.107   2.996  67.623  1.00  0.00     0.002 C 
HETATM   46  C   LIG     1      -8.818   4.342  67.534  1.00  0.00    -0.059 C 
HETATM   47  H   LIG     1      -9.039   2.349  66.756  1.00  0.00     0.114 H 
HETATM   48  C   LIG     1      -8.985   5.193  68.645  1.00  0.00    -0.047 C 
HETATM   49  H   LIG     1      -8.460   4.700  66.579  1.00  0.00     0.086 H 
BRANCH  48  50
HETATM   50  C   LIG     1      -8.514   6.634  68.468  1.00  0.00    -0.026 C 
HETATM   51  H   LIG     1      -8.125   6.977  69.440  1.00  0.00     0.042 H 
HETATM   52  H   LIG     1      -9.356   7.298  68.247  1.00  0.00     0.042 H 
BRANCH  50  53
HETATM   53  C   LIG     1      -7.427   6.862  67.397  1.00  0.00    -0.001 C 
HETATM   54  H   LIG     1      -7.610   6.202  66.542  1.00  0.00     0.064 H 
HETATM   55  H   LIG     1      -6.448   6.611  67.815  1.00  0.00     0.064 H 
BRANCH  53  56
HETATM   56  N   LIG     1      -7.394   8.205  66.839  1.00  0.00    -0.360 N 
HETATM   57  C   LIG     1      -7.667   8.435  65.509  1.00  0.00     0.221 C 
HETATM   58  O   LIG     1      -7.932   7.525  64.729  1.00  0.00    -0.273 OA
HETATM   59  H   LIG     1      -7.416   8.984  67.482  1.00  0.00     0.162 HD
BRANCH  57  60
HETATM   60  C   LIG     1      -7.525   9.897  65.060  1.00  0.00     0.024 C 
HETATM   61  H   LIG     1      -6.592  10.260  65.511  1.00  0.00     0.054 H 
HETATM   62  C   LIG     1      -7.363   9.977  63.529  1.00  0.00    -0.051 C 
HETATM   63  C   LIG     1      -8.683   9.757  62.779  1.00  0.00    -0.040 C 
HETATM   64  H   LIG     1      -6.632   9.237  63.180  1.00  0.00     0.034 H 
HETATM   65  H   LIG     1      -6.952  10.957  63.259  1.00  0.00     0.034 H 
HETATM   66  C   LIG     1      -9.819  10.633  63.308  1.00  0.00     0.035 C 
HETATM   67  H   LIG     1      -8.979   8.705  62.864  1.00  0.00     0.036 H 
HETATM   68  H   LIG     1      -8.517   9.959  61.715  1.00  0.00     0.036 H 
HETATM   69  H   LIG     1     -10.753  10.372  62.801  1.00  0.00     0.082 H 
HETATM   70  C   LIG     1      -9.984  10.464  64.816  1.00  0.00    -0.040 C 
HETATM   71  C   LIG     1      -8.677  10.791  65.540  1.00  0.00    -0.051 C 
HETATM   72  H   LIG     1     -10.294   9.438  65.048  1.00  0.00     0.036 H 
HETATM   73  H   LIG     1     -10.767  11.135  65.187  1.00  0.00     0.036 H 
HETATM   74  H   LIG     1      -8.836  10.715  66.619  1.00  0.00     0.034 H 
HETATM   75  H   LIG     1      -8.412  11.841  65.358  1.00  0.00     0.034 H 
BRANCH  66  76
HETATM   76  O   LIG     1      -9.560  12.013  63.052  1.00  0.00    -0.396 OA
HETATM   77  H   LIG     1     -10.338  12.403  62.620  1.00  0.00     0.210 HD
ENDBRANCH  66  76
ENDBRANCH  57  60
ENDBRANCH  53  56
ENDBRANCH  50  53
ENDBRANCH  48  50
ENDBRANCH   1  41
TORSDOF 14
ENDMDL
MODEL 9
REMARK VINA RESULT:      -5.5      4.936      9.037
REMARK  14 active torsions:
REMARK  status: ('A' for Active; 'I' for Inactive)
REMARK    1  A    between atoms: N_1  and  S_2 
REMARK    2  A    between atoms: S_2  and  C_5 
REMARK    3  A    between atoms: C_8  and  C_9 
REMARK    4  A    between atoms: C_9  and  C_10 
REMARK    5  A    between atoms: C_14  and  N_15 
REMARK       I    between atoms: N_15  and  C_16 
REMARK    6  A    between atoms: C_16  and  C_18 
REMARK    7  A    between atoms: C_18  and  C_19 
REMARK    8  A    between atoms: C_18  and  C_21 
REMARK    9  A    between atoms: C_19  and  S_20 
REMARK   10  A    between atoms: C_26  and  C_27 
REMARK   11  A    between atoms: C_27  and  C_28 
REMARK   12  A    between atoms: C_28  and  N_29 
REMARK       I    between atoms: N_29  and  C_30 
REMARK   13  A    between atoms: C_30  and  C_32 
REMARK   14  A    between atoms: C_36  and  O_38 
ROOT
HETATM    1  C   LIG     1      -9.118   5.427  72.380  1.00  0.00     0.059 C 
HETATM    2  H   LIG     1      -9.023   5.726  73.436  1.00  0.00     0.063 H 
ENDROOT
BRANCH   1   3
HETATM    3  C   LIG     1     -10.347   6.185  71.849  1.00  0.00     0.231 C 
HETATM    4  N   LIG     1     -10.662   7.380  72.483  1.00  0.00    -0.327 N 
HETATM    5  H   LIG     1     -10.126   7.621  73.310  1.00  0.00     0.169 HD
HETATM    6  O   LIG     1     -10.904   5.750  70.840  1.00  0.00    -0.272 OA
BRANCH   4   7
HETATM    7  C   LIG     1     -11.609   8.356  72.058  1.00  0.00     0.035 A 
HETATM    8  C   LIG     1     -12.989   8.206  72.191  1.00  0.00    -0.057 A 
HETATM    9  C   LIG     1     -13.867   9.158  71.660  1.00  0.00    -0.080 A 
HETATM   10  H   LIG     1     -13.432   7.345  72.681  1.00  0.00     0.086 H 
HETATM   11  C   LIG     1     -13.380  10.256  70.953  1.00  0.00    -0.076 A 
HETATM   12  H   LIG     1     -14.941   9.011  71.764  1.00  0.00     0.083 H 
HETATM   13  C   LIG     1     -12.002  10.434  70.790  1.00  0.00    -0.052 A 
HETATM   14  H   LIG     1     -14.091  10.940  70.495  1.00  0.00     0.084 H 
HETATM   15  C   LIG     1     -11.128   9.498  71.391  1.00  0.00    -0.051 A 
HETATM   16  H   LIG     1     -10.055   9.645  71.284  1.00  0.00     0.087 H 
BRANCH  13  17
HETATM   17  C   LIG     1     -11.459  11.457  69.806  1.00  0.00    -0.017 C 
HETATM   18  H   LIG     1     -12.273  12.095  69.440  1.00  0.00     0.047 H 
HETATM   19  H   LIG     1     -10.819  12.136  70.387  1.00  0.00     0.047 H 
BRANCH  17  20
HETATM   20  C   LIG     1     -10.669  10.967  68.610  1.00  0.00    -0.054 A 
HETATM   21  C   LIG     1     -11.164   9.945  67.783  1.00  0.00    -0.075 A 
HETATM   22  C   LIG     1     -10.465   9.547  66.634  1.00  0.00    -0.060 A 
HETATM   23  H   LIG     1     -12.115   9.468  68.015  1.00  0.00     0.084 H 
HETATM   24  C   LIG     1      -9.254  10.164  66.336  1.00  0.00     0.074 A 
HETATM   25  H   LIG     1     -10.874   8.771  65.994  1.00  0.00     0.085 H 
HETATM   26  C   LIG     1      -8.748  11.187  67.132  1.00  0.00    -0.060 A 
HETATM   27  C   LIG     1      -9.457  11.589  68.261  1.00  0.00    -0.075 A 
HETATM   28  H   LIG     1      -7.810  11.678  66.876  1.00  0.00     0.085 H 
HETATM   29  H   LIG     1      -9.068  12.410  68.860  1.00  0.00     0.084 H 
BRANCH  24  30
HETATM   30  S   LIG     1      -8.329   9.688  64.895  1.00  0.00     0.239 S 
HETATM   31  O   LIG     1      -6.906   9.671  65.239  1.00  0.00    -0.206 OA
HETATM   32  O   LIG     1      -8.837  10.365  63.743  1.00  0.00    -0.206 OA
BRANCH  30  33
HETATM   33  N   LIG     1      -8.769   8.074  64.717  1.00  0.00    -0.225 NA
HETATM   34  H   LIG     1      -9.779   7.983  64.665  1.00  0.00     0.136 HD
HETATM   35  H   LIG     1      -8.333   7.519  65.461  1.00  0.00     0.136 HD
ENDBRANCH  30  33
ENDBRANCH  24  30
ENDBRANCH  17  20
ENDBRANCH  13  17
ENDBRANCH   4   7
ENDBRANCH   1   3
BRANCH   1  36
HETATM   36  C   LIG     1      -9.489   3.911  72.442  1.00  0.00    -0.011 C 
HETATM   37  H   LIG     1      -8.585   3.313  72.605  1.00  0.00     0.050 H 
HETATM   38  H   LIG     1      -9.897   3.591  71.475  1.00  0.00     0.050 H 
BRANCH  36  39
HETATM   39  S   LIG     1     -10.683   3.359  73.728  1.00  0.00    -0.181 SA
HETATM   40  H   LIG     1     -10.646   2.044  73.463  1.00  0.00     0.101 HD
ENDBRANCH  36  39
ENDBRANCH   1  36
BRANCH   1  41
HETATM   41  C   LIG     1      -7.778   5.817  71.747  1.00  0.00    -0.020 C 
HETATM   42  C   LIG     1      -7.289   5.059  70.672  1.00  0.00     0.009 C 
HETATM   43  N   LIG     1      -6.213   5.353  69.912  1.00  0.00    -0.273 NA
HETATM   44  H   LIG     1      -7.754   4.134  70.348  1.00  0.00     0.115 H 
HETATM   45  C   LIG     1      -5.529   6.445  70.252  1.00  0.00     0.002 C 
HETATM   46  C   LIG     1      -5.829   7.196  71.369  1.00  0.00    -0.059 C 
HETATM   47  H   LIG     1      -4.700   6.708  69.605  1.00  0.00     0.114 H 
HETATM   48  C   LIG     1      -6.957   6.897  72.161  1.00  0.00    -0.047 C 
HETATM   49  H   LIG     1      -5.161   8.015  71.599  1.00  0.00     0.086 H 
BRANCH  48  50
HETATM   50  C   LIG     1      -7.119   7.713  73.441  1.00  0.00    -0.026 C 
HETATM   51  H   LIG     1      -8.174   7.645  73.746  1.00  0.00     0.042 H 
HETATM   52  H   LIG     1      -6.943   8.777  73.252  1.00  0.00     0.042 H 
BRANCH  50  53
HETATM   53  C   LIG     1      -6.236   7.283  74.631  1.00  0.00    -0.001 C 
HETATM   54  H   LIG     1      -5.231   7.034  74.273  1.00  0.00     0.064 H 
HETATM   55  H   LIG     1      -6.662   6.389  75.094  1.00  0.00     0.064 H 
BRANCH  53  56
HETATM   56  N   LIG     1      -6.035   8.311  75.642  1.00  0.00    -0.360 N 
HETATM   57  C   LIG     1      -4.998   9.212  75.550  1.00  0.00     0.221 C 
HETATM   58  O   LIG     1      -4.187   9.184  74.628  1.00  0.00    -0.273 OA
HETATM   59  H   LIG     1      -6.800   8.511  76.270  1.00  0.00     0.162 HD
BRANCH  57  60
HETATM   60  C   LIG     1      -4.881  10.190  76.728  1.00  0.00     0.024 C 
HETATM   61  H   LIG     1      -4.200   9.713  77.447  1.00  0.00     0.054 H 
HETATM   62  C   LIG     1      -4.224  11.507  76.271  1.00  0.00    -0.051 C 
HETATM   63  C   LIG     1      -5.182  12.405  75.477  1.00  0.00    -0.040 C 
HETATM   64  H   LIG     1      -3.340  11.304  75.655  1.00  0.00     0.034 H 
HETATM   65  H   LIG     1      -3.860  12.054  77.149  1.00  0.00     0.034 H 
HETATM   66  C   LIG     1      -6.521  12.616  76.184  1.00  0.00     0.035 C 
HETATM   67  H   LIG     1      -5.368  11.958  74.493  1.00  0.00     0.036 H 
HETATM   68  H   LIG     1      -4.693  13.369  75.303  1.00  0.00     0.036 H 
HETATM   69  H   LIG     1      -7.196  13.185  75.536  1.00  0.00     0.082 H 
HETATM   70  C   LIG     1      -7.162  11.280  76.551  1.00  0.00    -0.040 C 
HETATM   71  C   LIG     1      -6.220  10.455  77.429  1.00  0.00    -0.051 C 
HETATM   72  H   LIG     1      -7.414  10.721  75.643  1.00  0.00     0.036 H 
HETATM   73  H   LIG     1      -8.095  11.449  77.102  1.00  0.00     0.036 H 
HETATM   74  H   LIG     1      -6.723   9.529  77.723  1.00  0.00     0.034 H 
HETATM   75  H   LIG     1      -6.030  10.993  78.367  1.00  0.00     0.034 H 
BRANCH  66  76
HETATM   76  O   LIG     1      -6.349  13.361  77.389  1.00  0.00    -0.396 OA
HETATM   77  H   LIG     1      -6.976  14.103  77.390  1.00  0.00     0.210 HD
ENDBRANCH  66  76
ENDBRANCH  57  60
ENDBRANCH  53  56
ENDBRANCH  50  53
ENDBRANCH  48  50
ENDBRANCH   1  41
TORSDOF 14
ENDMDL
MODEL 10
REMARK VINA RESULT:      -5.3      5.171      8.329
REMARK  14 active torsions:
REMARK  status: ('A' for Active; 'I' for Inactive)
REMARK    1  A    between atoms: N_1  and  S_2 
REMARK    2  A    between atoms: S_2  and  C_5 
REMARK    3  A    between atoms: C_8  and  C_9 
REMARK    4  A    between atoms: C_9  and  C_10 
REMARK    5  A    between atoms: C_14  and  N_15 
REMARK       I    between atoms: N_15  and  C_16 
REMARK    6  A    between atoms: C_16  and  C_18 
REMARK    7  A    between atoms: C_18  and  C_19 
REMARK    8  A    between atoms: C_18  and  C_21 
REMARK    9  A    between atoms: C_19  and  S_20 
REMARK   10  A    between atoms: C_26  and  C_27 
REMARK   11  A    between atoms: C_27  and  C_28 
REMARK   12  A    between atoms: C_28  and  N_29 
REMARK       I    between atoms: N_29  and  C_30 
REMARK   13  A    between atoms: C_30  and  C_32 
REMARK   14  A    between atoms: C_36  and  O_38 
ROOT
HETATM    1  C   LIG     1      -6.130  10.572  67.719  1.00  0.00     0.059 C 
HETATM    2  H   LIG     1      -5.302  10.646  66.997  1.00  0.00     0.063 H 
ENDROOT
BRANCH   1   3
HETATM    3  C   LIG     1      -6.343  12.002  68.248  1.00  0.00     0.231 C 
HETATM    4  N   LIG     1      -6.424  13.009  67.296  1.00  0.00    -0.327 N 
HETATM    5  H   LIG     1      -6.241  12.752  66.331  1.00  0.00     0.169 HD
HETATM    6  O   LIG     1      -6.533  12.150  69.455  1.00  0.00    -0.272 OA
BRANCH   4   7
HETATM    7  C   LIG     1      -6.816  14.362  67.507  1.00  0.00     0.035 A 
HETATM    8  C   LIG     1      -5.984  15.333  68.066  1.00  0.00    -0.057 A 
HETATM    9  C   LIG     1      -6.465  16.618  68.340  1.00  0.00    -0.080 A 
HETATM   10  H   LIG     1      -4.952  15.125  68.329  1.00  0.00     0.086 H 
HETATM   11  C   LIG     1      -7.799  16.943  68.097  1.00  0.00    -0.076 A 
HETATM   12  H   LIG     1      -5.801  17.353  68.789  1.00  0.00     0.083 H 
HETATM   13  C   LIG     1      -8.667  15.992  67.548  1.00  0.00    -0.052 A 
HETATM   14  H   LIG     1      -8.158  17.928  68.385  1.00  0.00     0.084 H 
HETATM   15  C   LIG     1      -8.146  14.719  67.215  1.00  0.00    -0.051 A 
HETATM   16  H   LIG     1      -8.814  13.985  66.768  1.00  0.00     0.087 H 
BRANCH  13  17
HETATM   17  C   LIG     1     -10.168  16.227  67.527  1.00  0.00    -0.017 C 
HETATM   18  H   LIG     1     -10.379  17.301  67.448  1.00  0.00     0.047 H 
HETATM   19  H   LIG     1     -10.535  15.805  66.581  1.00  0.00     0.047 H 
BRANCH  17  20
HETATM   20  C   LIG     1     -11.008  15.663  68.655  1.00  0.00    -0.054 A 
HETATM   21  C   LIG     1     -11.707  14.454  68.503  1.00  0.00    -0.075 A 
HETATM   22  C   LIG     1     -12.421  13.896  69.574  1.00  0.00    -0.060 A 
HETATM   23  H   LIG     1     -11.678  13.922  67.553  1.00  0.00     0.084 H 
HETATM   24  C   LIG     1     -12.449  14.574  70.790  1.00  0.00     0.074 A 
HETATM   25  H   LIG     1     -12.937  12.949  69.445  1.00  0.00     0.085 H 
HETATM   26  C   LIG     1     -11.754  15.766  70.969  1.00  0.00    -0.060 A 
HETATM   27  C   LIG     1     -11.032  16.304  69.906  1.00  0.00    -0.075 A 
HETATM   28  H   LIG     1     -11.765  16.275  71.931  1.00  0.00     0.085 H 
HETATM   29  H   LIG     1     -10.469  17.221  70.066  1.00  0.00     0.084 H 
BRANCH  24  30
HETATM   30  S   LIG     1     -13.347  13.910  72.172  1.00  0.00     0.239 S 
HETATM   31  O   LIG     1     -12.926  14.616  73.383  1.00  0.00    -0.206 OA
HETATM   32  O   LIG     1     -13.392  12.483  72.085  1.00  0.00    -0.206 OA
BRANCH  30  33
HETATM   33  N   LIG     1     -14.911  14.444  71.860  1.00  0.00    -0.225 NA
HETATM   34  H   LIG     1     -15.083  15.333  72.319  1.00  0.00     0.136 HD
HETATM   35  H   LIG     1     -15.577  13.705  72.108  1.00  0.00     0.136 HD
ENDBRANCH  30  33
ENDBRANCH  24  30
ENDBRANCH  17  20
ENDBRANCH  13  17
ENDBRANCH   4   7
ENDBRANCH   1   3
BRANCH   1  36
HETATM   36  C   LIG     1      -5.545   9.718  68.889  1.00  0.00    -0.011 C 
HETATM   37  H   LIG     1      -6.254   9.695  69.724  1.00  0.00     0.050 H 
HETATM   38  H   LIG     1      -4.634  10.193  69.274  1.00  0.00     0.050 H 
BRANCH  36  39
HETATM   39  S   LIG     1      -5.122   7.958  68.554  1.00  0.00    -0.181 SA
HETATM   40  H   LIG     1      -5.815   7.407  69.563  1.00  0.00     0.101 HD
ENDBRANCH  36  39
ENDBRANCH   1  36
BRANCH   1  41
HETATM   41  C   LIG     1      -7.294   9.988  66.912  1.00  0.00    -0.020 C 
HETATM   42  C   LIG     1      -8.473   9.627  67.583  1.00  0.00     0.009 C 
HETATM   43  N   LIG     1      -9.633   9.242  67.010  1.00  0.00    -0.273 NA
HETATM   44  H   LIG     1      -8.553   9.625  68.665  1.00  0.00     0.115 H 
HETATM   45  C   LIG     1      -9.635   9.156  65.680  1.00  0.00     0.002 C 
HETATM   46  C   LIG     1      -8.503   9.353  64.917  1.00  0.00    -0.059 C 
HETATM   47  H   LIG     1     -10.584   8.902  65.222  1.00  0.00     0.114 H 
HETATM   48  C   LIG     1      -7.292   9.762  65.512  1.00  0.00    -0.047 C 
HETATM   49  H   LIG     1      -8.597   9.179  63.854  1.00  0.00     0.086 H 
BRANCH  48  50
HETATM   50  C   LIG     1      -6.076   9.825  64.591  1.00  0.00    -0.026 C 
HETATM   51  H   LIG     1      -5.533   8.873  64.694  1.00  0.00     0.042 H 
HETATM   52  H   LIG     1      -5.372  10.595  64.923  1.00  0.00     0.042 H 
BRANCH  50  53
HETATM   53  C   LIG     1      -6.374  10.059  63.095  1.00  0.00    -0.001 C 
HETATM   54  H   LIG     1      -7.424  10.349  62.970  1.00  0.00     0.064 H 
HETATM   55  H   LIG     1      -6.212   9.129  62.543  1.00  0.00     0.064 H 
BRANCH  53  56
HETATM   56  N   LIG     1      -5.609  11.135  62.483  1.00  0.00    -0.360 N 
HETATM   57  C   LIG     1      -6.035  11.749  61.327  1.00  0.00     0.221 C 
HETATM   58  O   LIG     1      -7.065  11.412  60.749  1.00  0.00    -0.273 OA
HETATM   59  H   LIG     1      -4.903  11.590  63.043  1.00  0.00     0.162 HD
BRANCH  57  60
HETATM   60  C   LIG     1      -5.084  12.818  60.770  1.00  0.00     0.024 C 
HETATM   61  H   LIG     1      -5.329  13.745  61.307  1.00  0.00     0.054 H 
HETATM   62  C   LIG     1      -3.621  12.463  61.101  1.00  0.00    -0.051 C 
HETATM   63  C   LIG     1      -3.065  11.345  60.210  1.00  0.00    -0.040 C 
HETATM   64  H   LIG     1      -3.527  12.156  62.150  1.00  0.00     0.034 H 
HETATM   65  H   LIG     1      -2.997  13.358  60.991  1.00  0.00     0.034 H 
HETATM   66  C   LIG     1      -3.297  11.602  58.721  1.00  0.00     0.035 C 
HETATM   67  H   LIG     1      -3.536  10.393  60.482  1.00  0.00     0.036 H 
HETATM   68  H   LIG     1      -1.993  11.240  60.410  1.00  0.00     0.036 H 
HETATM   69  H   LIG     1      -2.964  10.736  58.140  1.00  0.00     0.082 H 
HETATM   70  C   LIG     1      -4.771  11.878  58.437  1.00  0.00    -0.040 C 
HETATM   71  C   LIG     1      -5.265  13.065  59.266  1.00  0.00    -0.051 C 
HETATM   72  H   LIG     1      -5.371  10.988  58.661  1.00  0.00     0.036 H 
HETATM   73  H   LIG     1      -4.913  12.111  57.375  1.00  0.00     0.036 H 
HETATM   74  H   LIG     1      -6.306  13.276  59.005  1.00  0.00     0.034 H 
HETATM   75  H   LIG     1      -4.705  13.966  58.983  1.00  0.00     0.034 H 
BRANCH  66  76
HETATM   76  O   LIG     1      -2.550  12.734  58.276  1.00  0.00    -0.396 OA
HETATM   77  H   LIG     1      -1.875  12.945  58.943  1.00  0.00     0.210 HD
ENDBRANCH  66  76
ENDBRANCH  57  60
ENDBRANCH  53  56
ENDBRANCH  50  53
ENDBRANCH  48  50
ENDBRANCH   1  41
TORSDOF 14
ENDMDL
