MODEL 1
REMARK VINA RESULT:      -7.7      0.000      0.000
REMARK  13 active torsions:
REMARK  status: ('A' for Active; 'I' for Inactive)
REMARK    1  A    between atoms: N_1  and  S_2 
REMARK    2  A    between atoms: S_2  and  C_5 
REMARK    3  A    between atoms: C_8  and  C_9 
REMARK    4  A    between atoms: C_9  and  C_10 
REMARK    5  A    between atoms: C_14  and  N_15 
REMARK       I    between atoms: N_15  and  C_16 
REMARK    6  A    between atoms: C_16  and  C_18 
REMARK    7  A    between atoms: C_18  and  S_19 
REMARK    8  A    between atoms: C_18  and  C_20 
REMARK    9  A    between atoms: C_25  and  C_26 
REMARK   10  A    between atoms: C_26  and  C_27 
REMARK   11  A    between atoms: C_27  and  N_28 
REMARK       I    between atoms: N_28  and  C_29 
REMARK   12  A    between atoms: C_29  and  C_31 
REMARK   13  A    between atoms: C_35  and  O_37 
ROOT
HETATM    1  C   LIG     1     -10.484  11.612  65.844  1.00  0.00    -0.012 A 
HETATM    2  C   LIG     1     -10.091  10.914  64.694  1.00  0.00     0.010 A 
HETATM    3  N   LIG     1     -10.590  11.100  63.448  1.00  0.00    -0.272 NA
HETATM    4  C   LIG     1     -11.562  12.013  63.316  1.00  0.00     0.002 A 
HETATM    5  C   LIG     1     -12.071  12.733  64.380  1.00  0.00    -0.059 A 
HETATM    6  C   LIG     1     -11.542  12.537  65.671  1.00  0.00    -0.046 A 
HETATM    7  H   LIG     1      -9.318  10.148  64.726  1.00  0.00     0.115 H 
HETATM    8  H   LIG     1     -11.943  12.150  62.308  1.00  0.00     0.114 H 
HETATM    9  H   LIG     1     -12.879  13.438  64.198  1.00  0.00     0.086 H 
ENDROOT
BRANCH   1  10
HETATM   10  C   LIG     1      -9.785  11.354  67.178  1.00  0.00     0.093 C 
HETATM   11  H   LIG     1      -9.574  12.311  67.661  1.00  0.00     0.078 H 
BRANCH  10  12
HETATM   12  C   LIG     1     -10.555  10.438  68.147  1.00  0.00     0.240 C 
HETATM   13  N   LIG     1     -10.705  10.973  69.426  1.00  0.00    -0.326 N 
HETATM   14  H   LIG     1     -10.809  11.980  69.485  1.00  0.00     0.169 HD
HETATM   15  O   LIG     1     -10.926   9.310  67.822  1.00  0.00    -0.272 OA
BRANCH  13  16
HETATM   16  C   LIG     1     -11.320  10.234  70.458  1.00  0.00     0.035 A 
HETATM   17  C   LIG     1     -12.625  10.490  70.873  1.00  0.00    -0.057 A 
HETATM   18  C   LIG     1     -13.224   9.678  71.843  1.00  0.00    -0.080 A 
HETATM   19  H   LIG     1     -13.199  11.296  70.425  1.00  0.00     0.086 H 
HETATM   20  C   LIG     1     -12.498   8.653  72.449  1.00  0.00    -0.076 A 
HETATM   21  H   LIG     1     -14.254   9.855  72.140  1.00  0.00     0.083 H 
HETATM   22  C   LIG     1     -11.166   8.441  72.091  1.00  0.00    -0.052 A 
HETATM   23  H   LIG     1     -12.968   8.040  73.215  1.00  0.00     0.084 H 
HETATM   24  C   LIG     1     -10.609   9.203  71.055  1.00  0.00    -0.051 A 
HETATM   25  H   LIG     1      -9.579   9.025  70.777  1.00  0.00     0.087 H 
BRANCH  22  26
HETATM   26  C   LIG     1     -10.317   7.413  72.792  1.00  0.00    -0.017 C 
HETATM   27  H   LIG     1      -9.489   7.905  73.320  1.00  0.00     0.047 H 
HETATM   28  H   LIG     1     -10.915   6.939  73.580  1.00  0.00     0.047 H 
BRANCH  26  29
HETATM   29  C   LIG     1      -9.757   6.374  71.856  1.00  0.00    -0.054 A 
HETATM   30  C   LIG     1     -10.608   5.628  71.025  1.00  0.00    -0.075 A 
HETATM   31  C   LIG     1     -10.094   4.667  70.163  1.00  0.00    -0.060 A 
HETATM   32  H   LIG     1     -11.682   5.788  71.065  1.00  0.00     0.084 H 
HETATM   33  C   LIG     1      -8.722   4.444  70.136  1.00  0.00     0.074 A 
HETATM   34  H   LIG     1     -10.770   4.096  69.528  1.00  0.00     0.085 H 
HETATM   35  C   LIG     1      -7.852   5.174  70.953  1.00  0.00    -0.060 A 
HETATM   36  C   LIG     1      -8.379   6.140  71.815  1.00  0.00    -0.075 A 
HETATM   37  H   LIG     1      -6.785   4.997  70.937  1.00  0.00     0.085 H 
HETATM   38  H   LIG     1      -7.706   6.702  72.459  1.00  0.00     0.084 H 
BRANCH  33  39
HETATM   39  S   LIG     1      -8.044   3.254  69.024  1.00  0.00     0.239 S 
HETATM   40  O   LIG     1      -7.288   2.288  69.756  1.00  0.00    -0.206 OA
HETATM   41  O   LIG     1      -7.507   3.952  67.865  1.00  0.00    -0.206 OA
BRANCH  39  42
HETATM   42  N   LIG     1      -9.427   2.473  68.485  1.00  0.00    -0.225 NA
HETATM   43  H   LIG     1      -9.827   2.987  67.700  1.00  0.00     0.136 HD
HETATM   44  H   LIG     1     -10.071   2.315  69.257  1.00  0.00     0.136 HD
ENDBRANCH  39  42
ENDBRANCH  33  39
ENDBRANCH  26  29
ENDBRANCH  22  26
ENDBRANCH  13  16
ENDBRANCH  10  12
BRANCH  10  45
HETATM   45  S   LIG     1      -8.113  10.580  66.992  1.00  0.00    -0.163 SA
HETATM   46  H   LIG     1      -7.449  11.741  66.832  1.00  0.00     0.102 HD
ENDBRANCH  10  45
ENDBRANCH   1  10
BRANCH   6  47
HETATM   47  C   LIG     1     -12.203  13.309  66.794  1.00  0.00    -0.026 C 
HETATM   48  H   LIG     1     -12.329  12.644  67.662  1.00  0.00     0.042 H 
HETATM   49  H   LIG     1     -13.223  13.602  66.529  1.00  0.00     0.042 H 
BRANCH  47  50
HETATM   50  C   LIG     1     -11.364  14.520  67.215  1.00  0.00    -0.001 C 
HETATM   51  H   LIG     1     -11.197  15.187  66.364  1.00  0.00     0.064 H 
HETATM   52  H   LIG     1     -10.381  14.198  67.579  1.00  0.00     0.064 H 
BRANCH  50  53
HETATM   53  N   LIG     1     -11.983  15.242  68.315  1.00  0.00    -0.360 N 
HETATM   54  C   LIG     1     -12.080  14.726  69.587  1.00  0.00     0.221 C 
HETATM   55  O   LIG     1     -11.622  13.631  69.885  1.00  0.00    -0.273 OA
HETATM   56  H   LIG     1     -12.522  16.068  68.090  1.00  0.00     0.162 HD
BRANCH  54  57
HETATM   57  C   LIG     1     -12.837  15.610  70.583  1.00  0.00     0.024 C 
HETATM   58  H   LIG     1     -13.295  16.392  69.961  1.00  0.00     0.054 H 
HETATM   59  C   LIG     1     -13.993  14.853  71.261  1.00  0.00    -0.051 C 
HETATM   60  C   LIG     1     -13.594  14.020  72.479  1.00  0.00    -0.040 C 
HETATM   61  H   LIG     1     -14.491  14.189  70.541  1.00  0.00     0.034 H 
HETATM   62  H   LIG     1     -14.752  15.581  71.572  1.00  0.00     0.034 H 
HETATM   63  C   LIG     1     -12.709  14.760  73.469  1.00  0.00     0.035 C 
HETATM   64  H   LIG     1     -13.068  13.119  72.150  1.00  0.00     0.036 H 
HETATM   65  H   LIG     1     -14.516  13.696  72.980  1.00  0.00     0.036 H 
HETATM   66  H   LIG     1     -12.325  14.049  74.212  1.00  0.00     0.082 H 
HETATM   67  C   LIG     1     -11.525  15.438  72.790  1.00  0.00    -0.040 C 
HETATM   68  C   LIG     1     -11.896  16.296  71.582  1.00  0.00    -0.051 C 
HETATM   69  H   LIG     1     -10.813  14.671  72.467  1.00  0.00     0.036 H 
HETATM   70  H   LIG     1     -11.008  16.082  73.512  1.00  0.00     0.036 H 
HETATM   71  H   LIG     1     -10.958  16.597  71.101  1.00  0.00     0.034 H 
HETATM   72  H   LIG     1     -12.361  17.230  71.921  1.00  0.00     0.034 H 
BRANCH  63  73
HETATM   73  O   LIG     1     -13.477  15.730  74.171  1.00  0.00    -0.396 OA
HETATM   74  H   LIG     1     -14.324  15.310  74.408  1.00  0.00     0.210 HD
ENDBRANCH  63  73
ENDBRANCH  54  57
ENDBRANCH  50  53
ENDBRANCH  47  50
ENDBRANCH   6  47
TORSDOF 13
ENDMDL
MODEL 2
REMARK VINA RESULT:      -7.5      2.993      3.712
REMARK  13 active torsions:
REMARK  status: ('A' for Active; 'I' for Inactive)
REMARK    1  A    between atoms: N_1  and  S_2 
REMARK    2  A    between atoms: S_2  and  C_5 
REMARK    3  A    between atoms: C_8  and  C_9 
REMARK    4  A    between atoms: C_9  and  C_10 
REMARK    5  A    between atoms: C_14  and  N_15 
REMARK       I    between atoms: N_15  and  C_16 
REMARK    6  A    between atoms: C_16  and  C_18 
REMARK    7  A    between atoms: C_18  and  S_19 
REMARK    8  A    between atoms: C_18  and  C_20 
REMARK    9  A    between atoms: C_25  and  C_26 
REMARK   10  A    between atoms: C_26  and  C_27 
REMARK   11  A    between atoms: C_27  and  N_28 
REMARK       I    between atoms: N_28  and  C_29 
REMARK   12  A    between atoms: C_29  and  C_31 
REMARK   13  A    between atoms: C_35  and  O_37 
ROOT
HETATM    1  C   LIG     1     -10.526  12.519  65.474  1.00  0.00    -0.012 A 
HETATM    2  C   LIG     1     -11.565  12.413  64.539  1.00  0.00     0.010 A 
HETATM    3  N   LIG     1     -12.297  13.445  64.052  1.00  0.00    -0.272 NA
HETATM    4  C   LIG     1     -12.016  14.665  64.531  1.00  0.00     0.002 A 
HETATM    5  C   LIG     1     -11.048  14.895  65.491  1.00  0.00    -0.059 A 
HETATM    6  C   LIG     1     -10.288  13.817  65.987  1.00  0.00    -0.046 A 
HETATM    7  H   LIG     1     -11.859  11.454  64.117  1.00  0.00     0.115 H 
HETATM    8  H   LIG     1     -12.611  15.477  64.123  1.00  0.00     0.114 H 
HETATM    9  H   LIG     1     -10.895  15.910  65.849  1.00  0.00     0.086 H 
ENDROOT
BRANCH   1  10
HETATM   10  C   LIG     1      -9.730  11.280  65.884  1.00  0.00     0.093 C 
HETATM   11  H   LIG     1      -8.746  11.591  66.242  1.00  0.00     0.078 H 
BRANCH  10  12
HETATM   12  C   LIG     1     -10.413  10.390  66.938  1.00  0.00     0.240 C 
HETATM   13  N   LIG     1      -9.765   9.174  67.152  1.00  0.00    -0.326 N 
HETATM   14  H   LIG     1      -8.755   9.180  67.067  1.00  0.00     0.169 HD
HETATM   15  O   LIG     1     -11.475  10.709  67.472  1.00  0.00    -0.272 OA
BRANCH  13  16
HETATM   16  C   LIG     1     -10.297   8.207  68.030  1.00  0.00     0.035 A 
HETATM   17  C   LIG     1     -10.549   6.899  67.622  1.00  0.00    -0.057 A 
HETATM   18  C   LIG     1     -10.999   5.951  68.547  1.00  0.00    -0.080 A 
HETATM   19  H   LIG     1     -10.367   6.597  66.595  1.00  0.00     0.086 H 
HETATM   20  C   LIG     1     -11.263   6.323  69.866  1.00  0.00    -0.076 A 
HETATM   21  H   LIG     1     -11.161   4.922  68.238  1.00  0.00     0.083 H 
HETATM   22  C   LIG     1     -11.083   7.650  70.260  1.00  0.00    -0.052 A 
HETATM   23  H   LIG     1     -11.630   5.581  70.572  1.00  0.00     0.084 H 
HETATM   24  C   LIG     1     -10.547   8.567  69.347  1.00  0.00    -0.051 A 
HETATM   25  H   LIG     1     -10.402   9.590  69.664  1.00  0.00     0.087 H 
BRANCH  22  26
HETATM   26  C   LIG     1     -11.452   8.115  71.645  1.00  0.00    -0.017 C 
HETATM   27  H   LIG     1     -11.574   9.207  71.655  1.00  0.00     0.047 H 
HETATM   28  H   LIG     1     -12.443   7.717  71.899  1.00  0.00     0.047 H 
BRANCH  26  29
HETATM   29  C   LIG     1     -10.439   7.722  72.688  1.00  0.00    -0.054 A 
HETATM   30  C   LIG     1      -9.190   8.359  72.747  1.00  0.00    -0.075 A 
HETATM   31  C   LIG     1      -8.252   7.997  73.707  1.00  0.00    -0.060 A 
HETATM   32  H   LIG     1      -8.942   9.133  72.026  1.00  0.00     0.084 H 
HETATM   33  C   LIG     1      -8.563   6.984  74.608  1.00  0.00     0.074 A 
HETATM   34  H   LIG     1      -7.288   8.500  73.734  1.00  0.00     0.085 H 
HETATM   35  C   LIG     1      -9.800   6.333  74.572  1.00  0.00    -0.060 A 
HETATM   36  C   LIG     1     -10.737   6.708  73.604  1.00  0.00    -0.075 A 
HETATM   37  H   LIG     1     -10.040   5.542  75.269  1.00  0.00     0.085 H 
HETATM   38  H   LIG     1     -11.697   6.196  73.566  1.00  0.00     0.084 H 
BRANCH  33  39
HETATM   39  S   LIG     1      -7.402   6.531  75.857  1.00  0.00     0.239 S 
HETATM   40  O   LIG     1      -6.231   7.341  75.742  1.00  0.00    -0.206 OA
HETATM   41  O   LIG     1      -7.343   5.079  75.934  1.00  0.00    -0.206 OA
BRANCH  39  42
HETATM   42  N   LIG     1      -8.194   7.029  77.249  1.00  0.00    -0.225 NA
HETATM   43  H   LIG     1      -7.746   6.613  78.065  1.00  0.00     0.136 HD
HETATM   44  H   LIG     1      -9.192   6.845  77.176  1.00  0.00     0.136 HD
ENDBRANCH  39  42
ENDBRANCH  33  39
ENDBRANCH  26  29
ENDBRANCH  22  26
ENDBRANCH  13  16
ENDBRANCH  10  12
BRANCH  10  45
HETATM   45  S   LIG     1      -9.344  10.155  64.464  1.00  0.00    -0.163 SA
HETATM   46  H   LIG     1      -9.012   9.094  65.226  1.00  0.00     0.102 HD
ENDBRANCH  10  45
ENDBRANCH   1  10
BRANCH   6  47
HETATM   47  C   LIG     1      -9.300  14.140  67.089  1.00  0.00    -0.026 C 
HETATM   48  H   LIG     1      -9.218  15.232  67.188  1.00  0.00     0.042 H 
HETATM   49  H   LIG     1      -8.290  13.816  66.825  1.00  0.00     0.042 H 
BRANCH  47  50
HETATM   50  C   LIG     1      -9.743  13.552  68.433  1.00  0.00    -0.001 C 
HETATM   51  H   LIG     1      -8.875  13.232  69.018  1.00  0.00     0.064 H 
HETATM   52  H   LIG     1     -10.376  12.670  68.275  1.00  0.00     0.064 H 
BRANCH  50  53
HETATM   53  N   LIG     1     -10.549  14.495  69.189  1.00  0.00    -0.360 N 
HETATM   54  C   LIG     1     -11.829  14.217  69.611  1.00  0.00     0.221 C 
HETATM   55  O   LIG     1     -12.364  13.137  69.402  1.00  0.00    -0.273 OA
HETATM   56  H   LIG     1     -10.224  15.452  69.242  1.00  0.00     0.162 HD
BRANCH  54  57
HETATM   57  C   LIG     1     -12.537  15.373  70.324  1.00  0.00     0.024 C 
HETATM   58  H   LIG     1     -12.740  16.102  69.526  1.00  0.00     0.054 H 
HETATM   59  C   LIG     1     -13.902  14.948  70.891  1.00  0.00    -0.051 C 
HETATM   60  C   LIG     1     -13.853  14.282  72.266  1.00  0.00    -0.040 C 
HETATM   61  H   LIG     1     -14.410  14.264  70.198  1.00  0.00     0.034 H 
HETATM   62  H   LIG     1     -14.544  15.835  70.958  1.00  0.00     0.034 H 
HETATM   63  C   LIG     1     -12.994  15.021  73.279  1.00  0.00     0.035 C 
HETATM   64  H   LIG     1     -13.469  13.262  72.165  1.00  0.00     0.036 H 
HETATM   65  H   LIG     1     -14.883  14.208  72.640  1.00  0.00     0.036 H 
HETATM   66  H   LIG     1     -12.867  14.395  74.171  1.00  0.00     0.082 H 
HETATM   67  C   LIG     1     -11.617  15.365  72.726  1.00  0.00    -0.040 C 
HETATM   68  C   LIG     1     -11.636  16.053  71.363  1.00  0.00    -0.051 C 
HETATM   69  H   LIG     1     -11.027  14.446  72.645  1.00  0.00     0.036 H 
HETATM   70  H   LIG     1     -11.095  16.027  73.429  1.00  0.00     0.036 H 
HETATM   71  H   LIG     1     -10.598  16.106  71.015  1.00  0.00     0.034 H 
HETATM   72  H   LIG     1     -11.955  17.096  71.479  1.00  0.00     0.034 H 
BRANCH  63  73
HETATM   73  O   LIG     1     -13.654  16.212  73.691  1.00  0.00    -0.396 OA
HETATM   74  H   LIG     1     -13.134  16.963  73.351  1.00  0.00     0.210 HD
ENDBRANCH  63  73
ENDBRANCH  54  57
ENDBRANCH  50  53
ENDBRANCH  47  50
ENDBRANCH   6  47
TORSDOF 13
ENDMDL
MODEL 3
REMARK VINA RESULT:      -7.2      3.769      4.671
REMARK  13 active torsions:
REMARK  status: ('A' for Active; 'I' for Inactive)
REMARK    1  A    between atoms: N_1  and  S_2 
REMARK    2  A    between atoms: S_2  and  C_5 
REMARK    3  A    between atoms: C_8  and  C_9 
REMARK    4  A    between atoms: C_9  and  C_10 
REMARK    5  A    between atoms: C_14  and  N_15 
REMARK       I    between atoms: N_15  and  C_16 
REMARK    6  A    between atoms: C_16  and  C_18 
REMARK    7  A    between atoms: C_18  and  S_19 
REMARK    8  A    between atoms: C_18  and  C_20 
REMARK    9  A    between atoms: C_25  and  C_26 
REMARK   10  A    between atoms: C_26  and  C_27 
REMARK   11  A    between atoms: C_27  and  N_28 
REMARK       I    between atoms: N_28  and  C_29 
REMARK   12  A    between atoms: C_29  and  C_31 
REMARK   13  A    between atoms: C_35  and  O_37 
ROOT
HETATM    1  C   LIG     1     -10.715  11.999  65.861  1.00  0.00    -0.012 A 
HETATM    2  C   LIG     1     -10.575  11.356  64.623  1.00  0.00     0.010 A 
HETATM    3  N   LIG     1     -11.138  11.755  63.457  1.00  0.00    -0.272 NA
HETATM    4  C   LIG     1     -11.918  12.844  63.504  1.00  0.00     0.002 A 
HETATM    5  C   LIG     1     -12.176  13.538  64.670  1.00  0.00    -0.059 A 
HETATM    6  C   LIG     1     -11.581  13.119  65.878  1.00  0.00    -0.046 A 
HETATM    7  H   LIG     1      -9.969  10.458  64.511  1.00  0.00     0.115 H 
HETATM    8  H   LIG     1     -12.354  13.148  62.557  1.00  0.00     0.114 H 
HETATM    9  H   LIG     1     -12.840  14.398  64.634  1.00  0.00     0.086 H 
ENDROOT
BRANCH   1  10
HETATM   10  C   LIG     1      -9.963  11.483  67.087  1.00  0.00     0.093 C 
HETATM   11  H   LIG     1      -9.650  12.334  67.697  1.00  0.00     0.078 H 
BRANCH  10  12
HETATM   12  C   LIG     1     -10.745  10.478  67.952  1.00  0.00     0.240 C 
HETATM   13  N   LIG     1     -10.924  10.892  69.271  1.00  0.00    -0.326 N 
HETATM   14  H   LIG     1     -11.036  11.888  69.421  1.00  0.00     0.169 HD
HETATM   15  O   LIG     1     -11.101   9.383  67.518  1.00  0.00    -0.272 OA
BRANCH  13  16
HETATM   16  C   LIG     1     -11.553  10.058  70.219  1.00  0.00     0.035 A 
HETATM   17  C   LIG     1     -12.538  10.534  71.082  1.00  0.00    -0.057 A 
HETATM   18  C   LIG     1     -13.194   9.653  71.949  1.00  0.00    -0.080 A 
HETATM   19  H   LIG     1     -12.827  11.580  71.066  1.00  0.00     0.086 H 
HETATM   20  C   LIG     1     -12.822   8.310  72.004  1.00  0.00    -0.076 A 
HETATM   21  H   LIG     1     -13.988  10.017  72.596  1.00  0.00     0.083 H 
HETATM   22  C   LIG     1     -11.784   7.845  71.195  1.00  0.00    -0.052 A 
HETATM   23  H   LIG     1     -13.327   7.638  72.695  1.00  0.00     0.084 H 
HETATM   24  C   LIG     1     -11.198   8.717  70.269  1.00  0.00    -0.051 A 
HETATM   25  H   LIG     1     -10.402   8.346  69.638  1.00  0.00     0.087 H 
BRANCH  22  26
HETATM   26  C   LIG     1     -11.283   6.428  71.295  1.00  0.00    -0.017 C 
HETATM   27  H   LIG     1     -12.082   5.726  71.021  1.00  0.00     0.047 H 
HETATM   28  H   LIG     1     -10.501   6.275  70.541  1.00  0.00     0.047 H 
BRANCH  26  29
HETATM   29  C   LIG     1     -10.769   6.080  72.668  1.00  0.00    -0.054 A 
HETATM   30  C   LIG     1     -10.014   7.007  73.404  1.00  0.00    -0.075 A 
HETATM   31  C   LIG     1      -9.536   6.688  74.669  1.00  0.00    -0.060 A 
HETATM   32  H   LIG     1      -9.782   7.979  72.977  1.00  0.00     0.084 H 
HETATM   33  C   LIG     1      -9.808   5.432  75.200  1.00  0.00     0.074 A 
HETATM   34  H   LIG     1      -8.949   7.419  75.223  1.00  0.00     0.085 H 
HETATM   35  C   LIG     1     -10.559   4.491  74.488  1.00  0.00    -0.060 A 
HETATM   36  C   LIG     1     -11.037   4.822  73.217  1.00  0.00    -0.075 A 
HETATM   37  H   LIG     1     -10.767   3.511  74.897  1.00  0.00     0.085 H 
HETATM   38  H   LIG     1     -11.613   4.089  72.657  1.00  0.00     0.084 H 
BRANCH  33  39
HETATM   39  S   LIG     1      -9.242   5.018  76.818  1.00  0.00     0.239 S 
HETATM   40  O   LIG     1      -7.845   4.726  76.779  1.00  0.00    -0.206 OA
HETATM   41  O   LIG     1     -10.210   4.123  77.436  1.00  0.00    -0.206 OA
BRANCH  39  42
HETATM   42  N   LIG     1      -9.403   6.485  77.616  1.00  0.00    -0.225 NA
HETATM   43  H   LIG     1     -10.161   6.423  78.297  1.00  0.00     0.136 HD
HETATM   44  H   LIG     1      -9.500   7.245  76.946  1.00  0.00     0.136 HD
ENDBRANCH  39  42
ENDBRANCH  33  39
ENDBRANCH  26  29
ENDBRANCH  22  26
ENDBRANCH  13  16
ENDBRANCH  10  12
BRANCH  10  45
HETATM   45  S   LIG     1      -8.370  10.637  66.667  1.00  0.00    -0.163 SA
HETATM   46  H   LIG     1      -8.913   9.417  66.491  1.00  0.00     0.102 HD
ENDBRANCH  10  45
ENDBRANCH   1  10
BRANCH   6  47
HETATM   47  C   LIG     1     -11.971  13.888  67.123  1.00  0.00    -0.026 C 
HETATM   48  H   LIG     1     -12.430  13.194  67.844  1.00  0.00     0.042 H 
HETATM   49  H   LIG     1     -12.758  14.616  66.911  1.00  0.00     0.042 H 
BRANCH  47  50
HETATM   50  C   LIG     1     -10.756  14.553  67.779  1.00  0.00    -0.001 C 
HETATM   51  H   LIG     1      -9.837  14.020  67.515  1.00  0.00     0.064 H 
HETATM   52  H   LIG     1     -10.849  14.529  68.871  1.00  0.00     0.064 H 
BRANCH  50  53
HETATM   53  N   LIG     1     -10.654  15.956  67.414  1.00  0.00    -0.360 N 
HETATM   54  C   LIG     1     -10.636  16.971  68.344  1.00  0.00     0.221 C 
HETATM   55  O   LIG     1     -10.674  16.754  69.547  1.00  0.00    -0.273 OA
HETATM   56  H   LIG     1     -10.789  16.199  66.442  1.00  0.00     0.162 HD
BRANCH  54  57
HETATM   57  C   LIG     1     -10.604  18.383  67.753  1.00  0.00     0.024 C 
HETATM   58  H   LIG     1     -11.663  18.661  67.650  1.00  0.00     0.054 H 
HETATM   59  C   LIG     1      -9.975  19.398  68.723  1.00  0.00    -0.051 C 
HETATM   60  C   LIG     1      -8.449  19.471  68.683  1.00  0.00    -0.040 C 
HETATM   61  H   LIG     1     -10.280  19.182  69.756  1.00  0.00     0.034 H 
HETATM   62  H   LIG     1     -10.376  20.394  68.496  1.00  0.00     0.034 H 
HETATM   63  C   LIG     1      -7.872  19.557  67.279  1.00  0.00     0.035 C 
HETATM   64  H   LIG     1      -8.027  18.591  69.177  1.00  0.00     0.036 H 
HETATM   65  H   LIG     1      -8.140  20.352  69.263  1.00  0.00     0.036 H 
HETATM   66  H   LIG     1      -6.784  19.426  67.327  1.00  0.00     0.082 H 
HETATM   67  C   LIG     1      -8.449  18.494  66.352  1.00  0.00    -0.040 C 
HETATM   68  C   LIG     1      -9.974  18.414  66.354  1.00  0.00    -0.051 C 
HETATM   69  H   LIG     1      -8.047  17.517  66.640  1.00  0.00     0.036 H 
HETATM   70  H   LIG     1      -8.125  18.691  65.322  1.00  0.00     0.036 H 
HETATM   71  H   LIG     1     -10.250  17.524  65.775  1.00  0.00     0.034 H 
HETATM   72  H   LIG     1     -10.390  19.262  65.797  1.00  0.00     0.034 H 
BRANCH  63  73
HETATM   73  O   LIG     1      -8.118  20.848  66.736  1.00  0.00    -0.396 OA
HETATM   74  H   LIG     1      -8.915  21.199  67.175  1.00  0.00     0.210 HD
ENDBRANCH  63  73
ENDBRANCH  54  57
ENDBRANCH  50  53
ENDBRANCH  47  50
ENDBRANCH   6  47
TORSDOF 13
ENDMDL
MODEL 4
REMARK VINA RESULT:      -6.9      2.918      5.320
REMARK  13 active torsions:
REMARK  status: ('A' for Active; 'I' for Inactive)
REMARK    1  A    between atoms: N_1  and  S_2 
REMARK    2  A    between atoms: S_2  and  C_5 
REMARK    3  A    between atoms: C_8  and  C_9 
REMARK    4  A    between atoms: C_9  and  C_10 
REMARK    5  A    between atoms: C_14  and  N_15 
REMARK       I    between atoms: N_15  and  C_16 
REMARK    6  A    between atoms: C_16  and  C_18 
REMARK    7  A    between atoms: C_18  and  S_19 
REMARK    8  A    between atoms: C_18  and  C_20 
REMARK    9  A    between atoms: C_25  and  C_26 
REMARK   10  A    between atoms: C_26  and  C_27 
REMARK   11  A    between atoms: C_27  and  N_28 
REMARK       I    between atoms: N_28  and  C_29 
REMARK   12  A    between atoms: C_29  and  C_31 
REMARK   13  A    between atoms: C_35  and  O_37 
ROOT
HETATM    1  C   LIG     1      -9.775  13.537  68.113  1.00  0.00    -0.012 A 
HETATM    2  C   LIG     1      -8.883  12.608  68.667  1.00  0.00     0.010 A 
HETATM    3  N   LIG     1      -7.534  12.635  68.539  1.00  0.00    -0.272 NA
HETATM    4  C   LIG     1      -7.017  13.621  67.793  1.00  0.00     0.002 A 
HETATM    5  C   LIG     1      -7.792  14.570  67.154  1.00  0.00    -0.059 A 
HETATM    6  C   LIG     1      -9.194  14.538  67.297  1.00  0.00    -0.046 A 
HETATM    7  H   LIG     1      -9.230  11.773  69.273  1.00  0.00     0.115 H 
HETATM    8  H   LIG     1      -5.934  13.626  67.709  1.00  0.00     0.114 H 
HETATM    9  H   LIG     1      -7.301  15.325  66.544  1.00  0.00     0.086 H 
ENDROOT
BRANCH   1  10
HETATM   10  C   LIG     1     -11.273  13.431  68.398  1.00  0.00     0.093 C 
HETATM   11  H   LIG     1     -11.827  13.672  67.487  1.00  0.00     0.078 H 
BRANCH  10  12
HETATM   12  C   LIG     1     -11.734  12.069  68.947  1.00  0.00     0.240 C 
HETATM   13  N   LIG     1     -11.703  11.984  70.338  1.00  0.00    -0.326 N 
HETATM   14  H   LIG     1     -11.911  12.836  70.847  1.00  0.00     0.169 HD
HETATM   15  O   LIG     1     -12.024  11.131  68.204  1.00  0.00    -0.272 OA
BRANCH  13  16
HETATM   16  C   LIG     1     -12.021  10.782  71.003  1.00  0.00     0.035 A 
HETATM   17  C   LIG     1     -13.219  10.617  71.697  1.00  0.00    -0.057 A 
HETATM   18  C   LIG     1     -13.530   9.379  72.271  1.00  0.00    -0.080 A 
HETATM   19  H   LIG     1     -13.932  11.432  71.768  1.00  0.00     0.086 H 
HETATM   20  C   LIG     1     -12.618   8.325  72.213  1.00  0.00    -0.076 A 
HETATM   21  H   LIG     1     -14.480   9.240  72.780  1.00  0.00     0.083 H 
HETATM   22  C   LIG     1     -11.385   8.510  71.585  1.00  0.00    -0.052 A 
HETATM   23  H   LIG     1     -12.863   7.374  72.680  1.00  0.00     0.084 H 
HETATM   24  C   LIG     1     -11.125   9.725  70.936  1.00  0.00    -0.051 A 
HETATM   25  H   LIG     1     -10.172   9.855  70.443  1.00  0.00     0.087 H 
BRANCH  22  26
HETATM   26  C   LIG     1     -10.332   7.433  71.588  1.00  0.00    -0.017 C 
HETATM   27  H   LIG     1      -9.383   7.835  71.968  1.00  0.00     0.047 H 
HETATM   28  H   LIG     1     -10.621   6.659  72.309  1.00  0.00     0.047 H 
BRANCH  26  29
HETATM   29  C   LIG     1     -10.103   6.829  70.227  1.00  0.00    -0.054 A 
HETATM   30  C   LIG     1     -11.157   6.220  69.529  1.00  0.00    -0.075 A 
HETATM   31  C   LIG     1     -10.948   5.659  68.274  1.00  0.00    -0.060 A 
HETATM   32  H   LIG     1     -12.146   6.167  69.977  1.00  0.00     0.084 H 
HETATM   33  C   LIG     1      -9.674   5.701  67.717  1.00  0.00     0.074 A 
HETATM   34  H   LIG     1     -11.778   5.187  67.750  1.00  0.00     0.085 H 
HETATM   35  C   LIG     1      -8.607   6.303  68.391  1.00  0.00    -0.060 A 
HETATM   36  C   LIG     1      -8.829   6.866  69.651  1.00  0.00    -0.075 A 
HETATM   37  H   LIG     1      -7.615   6.332  67.961  1.00  0.00     0.085 H 
HETATM   38  H   LIG     1      -7.998   7.326  70.182  1.00  0.00     0.084 H 
BRANCH  33  39
HETATM   39  S   LIG     1      -9.394   5.028  66.111  1.00  0.00     0.239 S 
HETATM   40  O   LIG     1      -8.788   3.739  66.229  1.00  0.00    -0.206 OA
HETATM   41  O   LIG     1      -8.848   6.072  65.257  1.00  0.00    -0.206 OA
BRANCH  39  42
HETATM   42  N   LIG     1     -10.962   4.773  65.575  1.00  0.00    -0.225 NA
HETATM   43  H   LIG     1     -11.275   5.582  65.038  1.00  0.00     0.136 HD
HETATM   44  H   LIG     1     -11.569   4.523  66.353  1.00  0.00     0.136 HD
ENDBRANCH  39  42
ENDBRANCH  33  39
ENDBRANCH  26  29
ENDBRANCH  22  26
ENDBRANCH  13  16
ENDBRANCH  10  12
BRANCH  10  45
HETATM   45  S   LIG     1     -11.876  14.685  69.621  1.00  0.00    -0.163 SA
HETATM   46  H   LIG     1     -11.187  14.188  70.667  1.00  0.00     0.102 HD
ENDBRANCH  10  45
ENDBRANCH   1  10
BRANCH   6  47
HETATM   47  C   LIG     1      -9.976  15.566  66.506  1.00  0.00    -0.026 C 
HETATM   48  H   LIG     1      -9.476  16.542  66.593  1.00  0.00     0.042 H 
HETATM   49  H   LIG     1     -10.966  15.731  66.938  1.00  0.00     0.042 H 
BRANCH  47  50
HETATM   50  C   LIG     1     -10.068  15.185  65.025  1.00  0.00    -0.001 C 
HETATM   51  H   LIG     1      -9.202  15.566  64.475  1.00  0.00     0.064 H 
HETATM   52  H   LIG     1     -10.966  15.623  64.572  1.00  0.00     0.064 H 
BRANCH  50  53
HETATM   53  N   LIG     1     -10.192  13.747  64.850  1.00  0.00    -0.360 N 
HETATM   54  C   LIG     1     -11.275  13.159  64.238  1.00  0.00     0.221 C 
HETATM   55  O   LIG     1     -12.197  13.814  63.770  1.00  0.00    -0.273 OA
HETATM   56  H   LIG     1      -9.550  13.156  65.361  1.00  0.00     0.162 HD
BRANCH  54  57
HETATM   57  C   LIG     1     -11.252  11.627  64.224  1.00  0.00     0.024 C 
HETATM   58  H   LIG     1     -12.312  11.338  64.269  1.00  0.00     0.054 H 
HETATM   59  C   LIG     1     -10.698  11.072  62.900  1.00  0.00    -0.051 C 
HETATM   60  C   LIG     1      -9.174  10.982  62.824  1.00  0.00    -0.040 C 
HETATM   61  H   LIG     1     -11.048  11.679  62.054  1.00  0.00     0.034 H 
HETATM   62  H   LIG     1     -11.114  10.070  62.741  1.00  0.00     0.034 H 
HETATM   63  C   LIG     1      -8.532  10.347  64.047  1.00  0.00     0.035 C 
HETATM   64  H   LIG     1      -8.754  11.983  62.692  1.00  0.00     0.036 H 
HETATM   65  H   LIG     1      -8.918  10.399  61.929  1.00  0.00     0.036 H 
HETATM   66  H   LIG     1      -7.444  10.481  63.995  1.00  0.00     0.082 H 
HETATM   67  C   LIG     1      -9.035  10.963  65.347  1.00  0.00    -0.040 C 
HETATM   68  C   LIG     1     -10.555  11.046  65.461  1.00  0.00    -0.051 C 
HETATM   69  H   LIG     1      -8.622  11.973  65.445  1.00  0.00     0.036 H 
HETATM   70  H   LIG     1      -8.666  10.376  66.198  1.00  0.00     0.036 H 
HETATM   71  H   LIG     1     -10.779  11.637  66.358  1.00  0.00     0.034 H 
HETATM   72  H   LIG     1     -10.966  10.049  65.663  1.00  0.00     0.034 H 
BRANCH  63  73
HETATM   73  O   LIG     1      -8.785   8.948  64.053  1.00  0.00    -0.396 OA
HETATM   74  H   LIG     1      -9.583   8.797  63.513  1.00  0.00     0.210 HD
ENDBRANCH  63  73
ENDBRANCH  54  57
ENDBRANCH  50  53
ENDBRANCH  47  50
ENDBRANCH   6  47
TORSDOF 13
ENDMDL
MODEL 5
REMARK VINA RESULT:      -6.4      3.365      9.134
REMARK  13 active torsions:
REMARK  status: ('A' for Active; 'I' for Inactive)
REMARK    1  A    between atoms: N_1  and  S_2 
REMARK    2  A    between atoms: S_2  and  C_5 
REMARK    3  A    between atoms: C_8  and  C_9 
REMARK    4  A    between atoms: C_9  and  C_10 
REMARK    5  A    between atoms: C_14  and  N_15 
REMARK       I    between atoms: N_15  and  C_16 
REMARK    6  A    between atoms: C_16  and  C_18 
REMARK    7  A    between atoms: C_18  and  S_19 
REMARK    8  A    between atoms: C_18  and  C_20 
REMARK    9  A    between atoms: C_25  and  C_26 
REMARK   10  A    between atoms: C_26  and  C_27 
REMARK   11  A    between atoms: C_27  and  N_28 
REMARK       I    between atoms: N_28  and  C_29 
REMARK   12  A    between atoms: C_29  and  C_31 
REMARK   13  A    between atoms: C_35  and  O_37 
ROOT
HETATM    1  C   LIG     1      -8.070   7.165  65.615  1.00  0.00    -0.012 A 
HETATM    2  C   LIG     1      -8.394   6.037  64.847  1.00  0.00     0.010 A 
HETATM    3  N   LIG     1      -9.037   4.933  65.298  1.00  0.00    -0.272 NA
HETATM    4  C   LIG     1      -9.363   4.912  66.598  1.00  0.00     0.002 A 
HETATM    5  C   LIG     1      -9.057   5.938  67.470  1.00  0.00    -0.059 A 
HETATM    6  C   LIG     1      -8.393   7.086  66.991  1.00  0.00    -0.046 A 
HETATM    7  H   LIG     1      -8.148   5.976  63.789  1.00  0.00     0.115 H 
HETATM    8  H   LIG     1      -9.883   4.020  66.936  1.00  0.00     0.114 H 
HETATM    9  H   LIG     1      -9.331   5.838  68.517  1.00  0.00     0.086 H 
ENDROOT
BRANCH   1  10
HETATM   10  C   LIG     1      -7.407   8.377  64.962  1.00  0.00     0.093 C 
HETATM   11  H   LIG     1      -7.219   8.156  63.908  1.00  0.00     0.078 H 
BRANCH  10  12
HETATM   12  C   LIG     1      -8.196   9.693  65.088  1.00  0.00     0.240 C 
HETATM   13  N   LIG     1      -9.519   9.599  64.658  1.00  0.00    -0.326 N 
HETATM   14  H   LIG     1      -9.981   8.710  64.813  1.00  0.00     0.169 HD
HETATM   15  O   LIG     1      -7.665  10.738  65.462  1.00  0.00    -0.272 OA
BRANCH  13  16
HETATM   16  C   LIG     1     -10.361  10.730  64.634  1.00  0.00     0.035 A 
HETATM   17  C   LIG     1     -10.860  11.254  63.444  1.00  0.00    -0.057 A 
HETATM   18  C   LIG     1     -11.760  12.325  63.473  1.00  0.00    -0.080 A 
HETATM   19  H   LIG     1     -10.584  10.816  62.490  1.00  0.00     0.086 H 
HETATM   20  C   LIG     1     -12.111  12.919  64.686  1.00  0.00    -0.076 A 
HETATM   21  H   LIG     1     -12.178  12.710  62.547  1.00  0.00     0.083 H 
HETATM   22  C   LIG     1     -11.554  12.444  65.875  1.00  0.00    -0.052 A 
HETATM   23  H   LIG     1     -12.796  13.763  64.695  1.00  0.00     0.084 H 
HETATM   24  C   LIG     1     -10.726  11.315  65.839  1.00  0.00    -0.051 A 
HETATM   25  H   LIG     1     -10.308  10.948  66.766  1.00  0.00     0.087 H 
BRANCH  22  26
HETATM   26  C   LIG     1     -11.826  13.120  67.194  1.00  0.00    -0.017 C 
HETATM   27  H   LIG     1     -12.908  13.175  67.373  1.00  0.00     0.047 H 
HETATM   28  H   LIG     1     -11.438  12.486  68.002  1.00  0.00     0.047 H 
BRANCH  26  29
HETATM   29  C   LIG     1     -11.240  14.505  67.279  1.00  0.00    -0.054 A 
HETATM   30  C   LIG     1     -10.332  14.957  66.309  1.00  0.00    -0.075 A 
HETATM   31  C   LIG     1      -9.788  16.233  66.386  1.00  0.00    -0.060 A 
HETATM   32  H   LIG     1     -10.035  14.300  65.497  1.00  0.00     0.084 H 
HETATM   33  C   LIG     1     -10.147  17.060  67.445  1.00  0.00     0.074 A 
HETATM   34  H   LIG     1      -9.082  16.565  65.626  1.00  0.00     0.085 H 
HETATM   35  C   LIG     1     -11.050  16.635  68.424  1.00  0.00    -0.060 A 
HETATM   36  C   LIG     1     -11.594  15.350  68.336  1.00  0.00    -0.075 A 
HETATM   37  H   LIG     1     -11.327  17.275  69.251  1.00  0.00     0.085 H 
HETATM   38  H   LIG     1     -12.289  15.012  69.102  1.00  0.00     0.084 H 
BRANCH  33  39
HETATM   39  S   LIG     1      -9.496  18.697  67.544  1.00  0.00     0.239 S 
HETATM   40  O   LIG     1      -8.499  18.757  68.565  1.00  0.00    -0.206 OA
HETATM   41  O   LIG     1     -10.601  19.643  67.474  1.00  0.00    -0.206 OA
BRANCH  39  42
HETATM   42  N   LIG     1      -8.691  18.827  66.079  1.00  0.00    -0.225 NA
HETATM   43  H   LIG     1      -9.140  18.227  65.387  1.00  0.00     0.136 HD
HETATM   44  H   LIG     1      -7.695  18.655  66.203  1.00  0.00     0.136 HD
ENDBRANCH  39  42
ENDBRANCH  33  39
ENDBRANCH  26  29
ENDBRANCH  22  26
ENDBRANCH  13  16
ENDBRANCH  10  12
BRANCH  10  45
HETATM   45  S   LIG     1      -5.723   8.745  65.639  1.00  0.00    -0.163 SA
HETATM   46  H   LIG     1      -5.829   7.926  66.703  1.00  0.00     0.102 HD
ENDBRANCH  10  45
ENDBRANCH   1  10
BRANCH   6  47
HETATM   47  C   LIG     1      -8.027   8.133  68.023  1.00  0.00    -0.026 C 
HETATM   48  H   LIG     1      -7.154   8.699  67.666  1.00  0.00     0.042 H 
HETATM   49  H   LIG     1      -7.687   7.672  68.954  1.00  0.00     0.042 H 
BRANCH  47  50
HETATM   50  C   LIG     1      -9.184   9.107  68.272  1.00  0.00    -0.001 C 
HETATM   51  H   LIG     1      -9.552   9.516  67.326  1.00  0.00     0.064 H 
HETATM   52  H   LIG     1      -8.849   9.951  68.887  1.00  0.00     0.064 H 
BRANCH  50  53
HETATM   53  N   LIG     1     -10.265   8.476  69.010  1.00  0.00    -0.360 N 
HETATM   54  C   LIG     1     -10.502   8.720  70.343  1.00  0.00     0.221 C 
HETATM   55  O   LIG     1      -9.833   9.514  70.991  1.00  0.00    -0.273 OA
HETATM   56  H   LIG     1     -10.736   7.694  68.574  1.00  0.00     0.162 HD
BRANCH  54  57
HETATM   57  C   LIG     1     -11.638   7.895  70.956  1.00  0.00     0.024 C 
HETATM   58  H   LIG     1     -12.554   8.352  70.555  1.00  0.00     0.054 H 
HETATM   59  C   LIG     1     -11.620   6.437  70.463  1.00  0.00    -0.051 C 
HETATM   60  C   LIG     1     -10.684   5.506  71.232  1.00  0.00    -0.040 C 
HETATM   61  H   LIG     1     -11.348   6.395  69.399  1.00  0.00     0.034 H 
HETATM   62  H   LIG     1     -12.639   6.035  70.526  1.00  0.00     0.034 H 
HETATM   63  C   LIG     1     -10.805   5.619  72.743  1.00  0.00     0.035 C 
HETATM   64  H   LIG     1      -9.647   5.715  70.951  1.00  0.00     0.036 H 
HETATM   65  H   LIG     1     -10.906   4.476  70.921  1.00  0.00     0.036 H 
HETATM   66  H   LIG     1      -9.988   5.060  73.214  1.00  0.00     0.082 H 
HETATM   67  C   LIG     1     -10.742   7.065  73.220  1.00  0.00    -0.040 C 
HETATM   68  C   LIG     1     -11.684   8.015  72.484  1.00  0.00    -0.051 C 
HETATM   69  H   LIG     1      -9.717   7.432  73.105  1.00  0.00     0.036 H 
HETATM   70  H   LIG     1     -10.988   7.109  74.289  1.00  0.00     0.036 H 
HETATM   71  H   LIG     1     -11.435   9.032  72.810  1.00  0.00     0.034 H 
HETATM   72  H   LIG     1     -12.715   7.849  72.821  1.00  0.00     0.034 H 
BRANCH  63  73
HETATM   73  O   LIG     1     -12.024   5.027  73.174  1.00  0.00    -0.396 OA
HETATM   74  H   LIG     1     -12.665   5.122  72.445  1.00  0.00     0.210 HD
ENDBRANCH  63  73
ENDBRANCH  54  57
ENDBRANCH  50  53
ENDBRANCH  47  50
ENDBRANCH   6  47
TORSDOF 13
ENDMDL
MODEL 6
REMARK VINA RESULT:      -6.2      3.782      9.011
REMARK  13 active torsions:
REMARK  status: ('A' for Active; 'I' for Inactive)
REMARK    1  A    between atoms: N_1  and  S_2 
REMARK    2  A    between atoms: S_2  and  C_5 
REMARK    3  A    between atoms: C_8  and  C_9 
REMARK    4  A    between atoms: C_9  and  C_10 
REMARK    5  A    between atoms: C_14  and  N_15 
REMARK       I    between atoms: N_15  and  C_16 
REMARK    6  A    between atoms: C_16  and  C_18 
REMARK    7  A    between atoms: C_18  and  S_19 
REMARK    8  A    between atoms: C_18  and  C_20 
REMARK    9  A    between atoms: C_25  and  C_26 
REMARK   10  A    between atoms: C_26  and  C_27 
REMARK   11  A    between atoms: C_27  and  N_28 
REMARK       I    between atoms: N_28  and  C_29 
REMARK   12  A    between atoms: C_29  and  C_31 
REMARK   13  A    between atoms: C_35  and  O_37 
ROOT
HETATM    1  C   LIG     1      -7.812   7.927  64.503  1.00  0.00    -0.012 A 
HETATM    2  C   LIG     1      -8.212   6.594  64.665  1.00  0.00     0.010 A 
HETATM    3  N   LIG     1      -8.023   5.842  65.777  1.00  0.00    -0.272 NA
HETATM    4  C   LIG     1      -7.372   6.422  66.795  1.00  0.00     0.002 A 
HETATM    5  C   LIG     1      -6.884   7.714  66.741  1.00  0.00    -0.059 A 
HETATM    6  C   LIG     1      -7.090   8.490  65.583  1.00  0.00    -0.046 A 
HETATM    7  H   LIG     1      -8.733   6.053  63.878  1.00  0.00     0.115 H 
HETATM    8  H   LIG     1      -7.236   5.804  67.678  1.00  0.00     0.114 H 
HETATM    9  H   LIG     1      -6.342   8.107  67.598  1.00  0.00     0.086 H 
ENDROOT
BRANCH   1  10
HETATM   10  C   LIG     1      -8.155   8.683  63.219  1.00  0.00     0.093 C 
HETATM   11  H   LIG     1      -8.777   8.046  62.586  1.00  0.00     0.078 H 
BRANCH  10  12
HETATM   12  C   LIG     1      -8.845  10.043  63.432  1.00  0.00     0.240 C 
HETATM   13  N   LIG     1     -10.063   9.955  64.105  1.00  0.00    -0.326 N 
HETATM   14  H   LIG     1     -10.139   9.229  64.809  1.00  0.00     0.169 HD
HETATM   15  O   LIG     1      -8.383  11.087  62.974  1.00  0.00    -0.272 OA
BRANCH  13  16
HETATM   16  C   LIG     1     -10.863  11.097  64.318  1.00  0.00     0.035 A 
HETATM   17  C   LIG     1     -11.561  11.713  63.282  1.00  0.00    -0.057 A 
HETATM   18  C   LIG     1     -12.409  12.792  63.553  1.00  0.00    -0.080 A 
HETATM   19  H   LIG     1     -11.480  11.342  62.265  1.00  0.00     0.086 H 
HETATM   20  C   LIG     1     -12.510  13.302  64.848  1.00  0.00    -0.076 A 
HETATM   21  H   LIG     1     -12.982  13.250  62.750  1.00  0.00     0.083 H 
HETATM   22  C   LIG     1     -11.755  12.735  65.876  1.00  0.00    -0.052 A 
HETATM   23  H   LIG     1     -13.159  14.153  65.043  1.00  0.00     0.084 H 
HETATM   24  C   LIG     1     -10.980  11.599  65.607  1.00  0.00    -0.051 A 
HETATM   25  H   LIG     1     -10.407  11.160  66.412  1.00  0.00     0.087 H 
BRANCH  22  26
HETATM   26  C   LIG     1     -11.756  13.317  67.265  1.00  0.00    -0.017 C 
HETATM   27  H   LIG     1     -12.780  13.338  67.663  1.00  0.00     0.047 H 
HETATM   28  H   LIG     1     -11.207  12.640  67.932  1.00  0.00     0.047 H 
BRANCH  26  29
HETATM   29  C   LIG     1     -11.175  14.706  67.323  1.00  0.00    -0.054 A 
HETATM   30  C   LIG     1     -10.375  15.189  66.277  1.00  0.00    -0.075 A 
HETATM   31  C   LIG     1      -9.835  16.469  66.329  1.00  0.00    -0.060 A 
HETATM   32  H   LIG     1     -10.157  14.554  65.422  1.00  0.00     0.084 H 
HETATM   33  C   LIG     1     -10.090  17.267  67.438  1.00  0.00     0.074 A 
HETATM   34  H   LIG     1      -9.213  16.825  65.509  1.00  0.00     0.085 H 
HETATM   35  C   LIG     1     -10.885  16.810  68.494  1.00  0.00    -0.060 A 
HETATM   36  C   LIG     1     -11.425  15.522  68.431  1.00  0.00    -0.075 A 
HETATM   37  H   LIG     1     -11.079  17.428  69.360  1.00  0.00     0.085 H 
HETATM   38  H   LIG     1     -12.035  15.160  69.255  1.00  0.00     0.084 H 
BRANCH  33  39
HETATM   39  S   LIG     1      -9.444  18.907  67.510  1.00  0.00     0.239 S 
HETATM   40  O   LIG     1      -9.868  19.641  66.360  1.00  0.00    -0.206 OA
HETATM   41  O   LIG     1      -8.051  18.842  67.926  1.00  0.00    -0.206 OA
BRANCH  39  42
HETATM   42  N   LIG     1     -10.281  19.541  68.818  1.00  0.00    -0.225 NA
HETATM   43  H   LIG     1      -9.780  20.350  69.185  1.00  0.00     0.136 HD
HETATM   44  H   LIG     1     -10.470  18.815  69.506  1.00  0.00     0.136 HD
ENDBRANCH  39  42
ENDBRANCH  33  39
ENDBRANCH  26  29
ENDBRANCH  22  26
ENDBRANCH  13  16
ENDBRANCH  10  12
BRANCH  10  45
HETATM   45  S   LIG     1      -6.677   9.041  62.162  1.00  0.00    -0.163 SA
HETATM   46  H   LIG     1      -6.800   7.943  61.391  1.00  0.00     0.102 HD
ENDBRANCH  10  45
ENDBRANCH   1  10
BRANCH   6  47
HETATM   47  C   LIG     1      -6.462   9.868  65.574  1.00  0.00    -0.026 C 
HETATM   48  H   LIG     1      -6.753  10.389  64.650  1.00  0.00     0.042 H 
HETATM   49  H   LIG     1      -5.372   9.807  65.517  1.00  0.00     0.042 H 
BRANCH  47  50
HETATM   50  C   LIG     1      -6.913  10.701  66.778  1.00  0.00    -0.001 C 
HETATM   51  H   LIG     1      -6.757  11.767  66.588  1.00  0.00     0.064 H 
HETATM   52  H   LIG     1      -6.330  10.436  67.668  1.00  0.00     0.064 H 
BRANCH  50  53
HETATM   53  N   LIG     1      -8.303  10.441  67.116  1.00  0.00    -0.360 N 
HETATM   54  C   LIG     1      -8.737  10.265  68.410  1.00  0.00     0.221 C 
HETATM   55  O   LIG     1      -7.982  10.349  69.370  1.00  0.00    -0.273 OA
HETATM   56  H   LIG     1      -8.931  10.197  66.362  1.00  0.00     0.162 HD
BRANCH  54  57
HETATM   57  C   LIG     1     -10.224   9.923  68.548  1.00  0.00     0.024 C 
HETATM   58  H   LIG     1     -10.725  10.589  67.832  1.00  0.00     0.054 H 
HETATM   59  C   LIG     1     -10.526   8.483  68.097  1.00  0.00    -0.051 C 
HETATM   60  C   LIG     1     -10.297   7.410  69.161  1.00  0.00    -0.040 C 
HETATM   61  H   LIG     1      -9.925   8.223  67.215  1.00  0.00     0.034 H 
HETATM   62  H   LIG     1     -11.572   8.431  67.771  1.00  0.00     0.034 H 
HETATM   63  C   LIG     1     -10.902   7.746  70.515  1.00  0.00     0.035 C 
HETATM   64  H   LIG     1      -9.224   7.247  69.292  1.00  0.00     0.036 H 
HETATM   65  H   LIG     1     -10.728   6.471  68.788  1.00  0.00     0.036 H 
HETATM   66  H   LIG     1     -10.545   7.022  71.259  1.00  0.00     0.082 H 
HETATM   67  C   LIG     1     -10.527   9.147  70.983  1.00  0.00    -0.040 C 
HETATM   68  C   LIG     1     -10.766  10.244  69.947  1.00  0.00    -0.051 C 
HETATM   69  H   LIG     1      -9.469   9.157  71.263  1.00  0.00     0.036 H 
HETATM   70  H   LIG     1     -11.106   9.401  71.880  1.00  0.00     0.036 H 
HETATM   71  H   LIG     1     -10.321  11.164  70.344  1.00  0.00     0.034 H 
HETATM   72  H   LIG     1     -11.840  10.452  69.870  1.00  0.00     0.034 H 
BRANCH  63  73
HETATM   73  O   LIG     1     -12.317   7.625  70.454  1.00  0.00    -0.396 OA
HETATM   74  H   LIG     1     -12.627   8.215  69.742  1.00  0.00     0.210 HD
ENDBRANCH  63  73
ENDBRANCH  54  57
ENDBRANCH  50  53
ENDBRANCH  47  50
ENDBRANCH   6  47
TORSDOF 13
ENDMDL
MODEL 7
REMARK VINA RESULT:      -6.0      4.005      6.326
REMARK  13 active torsions:
REMARK  status: ('A' for Active; 'I' for Inactive)
REMARK    1  A    between atoms: N_1  and  S_2 
REMARK    2  A    between atoms: S_2  and  C_5 
REMARK    3  A    between atoms: C_8  and  C_9 
REMARK    4  A    between atoms: C_9  and  C_10 
REMARK    5  A    between atoms: C_14  and  N_15 
REMARK       I    between atoms: N_15  and  C_16 
REMARK    6  A    between atoms: C_16  and  C_18 
REMARK    7  A    between atoms: C_18  and  S_19 
REMARK    8  A    between atoms: C_18  and  C_20 
REMARK    9  A    between atoms: C_25  and  C_26 
REMARK   10  A    between atoms: C_26  and  C_27 
REMARK   11  A    between atoms: C_27  and  N_28 
REMARK       I    between atoms: N_28  and  C_29 
REMARK   12  A    between atoms: C_29  and  C_31 
REMARK   13  A    between atoms: C_35  and  O_37 
ROOT
HETATM    1  C   LIG     1      -7.846   8.387  63.965  1.00  0.00    -0.012 A 
HETATM    2  C   LIG     1      -7.921   6.988  63.917  1.00  0.00     0.010 A 
HETATM    3  N   LIG     1      -7.372   6.136  64.817  1.00  0.00    -0.272 NA
HETATM    4  C   LIG     1      -6.674   6.686  65.822  1.00  0.00     0.002 A 
HETATM    5  C   LIG     1      -6.486   8.048  65.954  1.00  0.00    -0.059 A 
HETATM    6  C   LIG     1      -7.066   8.926  65.016  1.00  0.00    -0.046 A 
HETATM    7  H   LIG     1      -8.457   6.470  63.124  1.00  0.00     0.115 H 
HETATM    8  H   LIG     1      -6.248   5.985  66.534  1.00  0.00     0.114 H 
HETATM    9  H   LIG     1      -5.886   8.418  66.782  1.00  0.00     0.086 H 
ENDROOT
BRANCH   1  10
HETATM   10  C   LIG     1      -8.577   9.233  62.923  1.00  0.00     0.093 C 
HETATM   11  H   LIG     1      -9.327   8.615  62.424  1.00  0.00     0.078 H 
BRANCH  10  12
HETATM   12  C   LIG     1      -9.234  10.513  63.471  1.00  0.00     0.240 C 
HETATM   13  N   LIG     1     -10.118  10.283  64.525  1.00  0.00    -0.326 N 
HETATM   14  H   LIG     1      -9.885   9.520  65.151  1.00  0.00     0.169 HD
HETATM   15  O   LIG     1      -9.041  11.615  62.960  1.00  0.00    -0.272 OA
BRANCH  13  16
HETATM   16  C   LIG     1     -10.863  11.336  65.096  1.00  0.00     0.035 A 
HETATM   17  C   LIG     1     -11.716  12.133  64.336  1.00  0.00    -0.057 A 
HETATM   18  C   LIG     1     -12.499  13.111  64.958  1.00  0.00    -0.080 A 
HETATM   19  H   LIG     1     -11.806  11.980  63.265  1.00  0.00     0.086 H 
HETATM   20  C   LIG     1     -12.382  13.342  66.329  1.00  0.00    -0.076 A 
HETATM   21  H   LIG     1     -13.192  13.708  64.371  1.00  0.00     0.083 H 
HETATM   22  C   LIG     1     -11.473  12.596  67.081  1.00  0.00    -0.052 A 
HETATM   23  H   LIG     1     -12.983  14.118  66.799  1.00  0.00     0.084 H 
HETATM   24  C   LIG     1     -10.762  11.560  66.462  1.00  0.00    -0.051 A 
HETATM   25  H   LIG     1     -10.068  10.980  67.055  1.00  0.00     0.087 H 
BRANCH  22  26
HETATM   26  C   LIG     1     -11.241  12.880  68.542  1.00  0.00    -0.017 C 
HETATM   27  H   LIG     1     -10.202  13.197  68.704  1.00  0.00     0.047 H 
HETATM   28  H   LIG     1     -11.850  13.746  68.835  1.00  0.00     0.047 H 
BRANCH  26  29
HETATM   29  C   LIG     1     -11.541  11.699  69.428  1.00  0.00    -0.054 A 
HETATM   30  C   LIG     1     -10.755  10.539  69.361  1.00  0.00    -0.075 A 
HETATM   31  C   LIG     1     -11.031   9.446  70.175  1.00  0.00    -0.060 A 
HETATM   32  H   LIG     1      -9.931  10.482  68.655  1.00  0.00     0.084 H 
HETATM   33  C   LIG     1     -12.105   9.511  71.055  1.00  0.00     0.074 A 
HETATM   34  H   LIG     1     -10.411   8.553  70.106  1.00  0.00     0.085 H 
HETATM   35  C   LIG     1     -12.904  10.656  71.142  1.00  0.00    -0.060 A 
HETATM   36  C   LIG     1     -12.616  11.750  70.321  1.00  0.00    -0.075 A 
HETATM   37  H   LIG     1     -13.743  10.706  71.823  1.00  0.00     0.085 H 
HETATM   38  H   LIG     1     -13.242  12.638  70.379  1.00  0.00     0.084 H 
BRANCH  33  39
HETATM   39  S   LIG     1     -12.452   8.150  72.122  1.00  0.00     0.239 S 
HETATM   40  O   LIG     1     -11.324   7.897  72.961  1.00  0.00    -0.206 OA
HETATM   41  O   LIG     1     -13.100   7.103  71.346  1.00  0.00    -0.206 OA
BRANCH  39  42
HETATM   42  N   LIG     1     -13.647   8.793  73.108  1.00  0.00    -0.225 NA
HETATM   43  H   LIG     1     -13.239   9.081  73.998  1.00  0.00     0.136 HD
HETATM   44  H   LIG     1     -14.427   8.144  73.193  1.00  0.00     0.136 HD
ENDBRANCH  39  42
ENDBRANCH  33  39
ENDBRANCH  26  29
ENDBRANCH  22  26
ENDBRANCH  13  16
ENDBRANCH  10  12
BRANCH  10  45
HETATM   45  S   LIG     1      -7.483   9.795  61.538  1.00  0.00    -0.163 SA
HETATM   46  H   LIG     1      -7.003  10.877  62.183  1.00  0.00     0.102 HD
ENDBRANCH  10  45
ENDBRANCH   1  10
BRANCH   6  47
HETATM   47  C   LIG     1      -6.753  10.398  65.188  1.00  0.00    -0.026 C 
HETATM   48  H   LIG     1      -7.324  10.976  64.446  1.00  0.00     0.042 H 
HETATM   49  H   LIG     1      -5.707  10.612  64.950  1.00  0.00     0.042 H 
BRANCH  47  50
HETATM   50  C   LIG     1      -7.119  10.893  66.591  1.00  0.00    -0.001 C 
HETATM   51  H   LIG     1      -6.533  10.365  67.350  1.00  0.00     0.064 H 
HETATM   52  H   LIG     1      -8.179  10.700  66.800  1.00  0.00     0.064 H 
BRANCH  50  53
HETATM   53  N   LIG     1      -6.940  12.330  66.715  1.00  0.00    -0.360 N 
HETATM   54  C   LIG     1      -7.342  13.041  67.822  1.00  0.00     0.221 C 
HETATM   55  O   LIG     1      -7.852  12.502  68.795  1.00  0.00    -0.273 OA
HETATM   56  H   LIG     1      -6.682  12.843  65.882  1.00  0.00     0.162 HD
BRANCH  54  57
HETATM   57  C   LIG     1      -7.136  14.555  67.723  1.00  0.00     0.024 C 
HETATM   58  H   LIG     1      -6.085  14.669  67.421  1.00  0.00     0.054 H 
HETATM   59  C   LIG     1      -7.986  15.179  66.602  1.00  0.00    -0.051 C 
HETATM   60  C   LIG     1      -9.425  15.517  66.993  1.00  0.00    -0.040 C 
HETATM   61  H   LIG     1      -8.015  14.515  65.728  1.00  0.00     0.034 H 
HETATM   62  H   LIG     1      -7.494  16.099  66.261  1.00  0.00     0.034 H 
HETATM   63  C   LIG     1      -9.547  16.260  68.313  1.00  0.00     0.035 C 
HETATM   64  H   LIG     1     -10.012  14.596  67.058  1.00  0.00     0.036 H 
HETATM   65  H   LIG     1      -9.857  16.124  66.186  1.00  0.00     0.036 H 
HETATM   66  H   LIG     1     -10.604  16.305  68.606  1.00  0.00     0.082 H 
HETATM   67  C   LIG     1      -8.762  15.584  69.431  1.00  0.00    -0.040 C 
HETATM   68  C   LIG     1      -7.314  15.255  69.076  1.00  0.00    -0.051 C 
HETATM   69  H   LIG     1      -9.272  14.656  69.712  1.00  0.00     0.036 H 
HETATM   70  H   LIG     1      -8.753  16.233  70.316  1.00  0.00     0.036 H 
HETATM   71  H   LIG     1      -6.913  14.645  69.895  1.00  0.00     0.034 H 
HETATM   72  H   LIG     1      -6.714  16.174  69.081  1.00  0.00     0.034 H 
BRANCH  63  73
HETATM   73  O   LIG     1      -9.096  17.599  68.155  1.00  0.00    -0.396 OA
HETATM   74  H   LIG     1      -9.868  18.181  68.281  1.00  0.00     0.210 HD
ENDBRANCH  63  73
ENDBRANCH  54  57
ENDBRANCH  50  53
ENDBRANCH  47  50
ENDBRANCH   6  47
TORSDOF 13
ENDMDL
MODEL 8
REMARK VINA RESULT:      -6.0      5.157      9.105
REMARK  13 active torsions:
REMARK  status: ('A' for Active; 'I' for Inactive)
REMARK    1  A    between atoms: N_1  and  S_2 
REMARK    2  A    between atoms: S_2  and  C_5 
REMARK    3  A    between atoms: C_8  and  C_9 
REMARK    4  A    between atoms: C_9  and  C_10 
REMARK    5  A    between atoms: C_14  and  N_15 
REMARK       I    between atoms: N_15  and  C_16 
REMARK    6  A    between atoms: C_16  and  C_18 
REMARK    7  A    between atoms: C_18  and  S_19 
REMARK    8  A    between atoms: C_18  and  C_20 
REMARK    9  A    between atoms: C_25  and  C_26 
REMARK   10  A    between atoms: C_26  and  C_27 
REMARK   11  A    between atoms: C_27  and  N_28 
REMARK       I    between atoms: N_28  and  C_29 
REMARK   12  A    between atoms: C_29  and  C_31 
REMARK   13  A    between atoms: C_35  and  O_37 
ROOT
HETATM    1  C   LIG     1      -7.879   7.975  64.260  1.00  0.00    -0.012 A 
HETATM    2  C   LIG     1      -8.186   6.610  64.350  1.00  0.00     0.010 A 
HETATM    3  N   LIG     1      -7.987   5.826  65.437  1.00  0.00    -0.272 NA
HETATM    4  C   LIG     1      -7.422   6.406  66.505  1.00  0.00     0.002 A 
HETATM    5  C   LIG     1      -7.030   7.731  66.526  1.00  0.00    -0.059 A 
HETATM    6  C   LIG     1      -7.246   8.540  65.392  1.00  0.00    -0.046 A 
HETATM    7  H   LIG     1      -8.633   6.068  63.518  1.00  0.00     0.115 H 
HETATM    8  H   LIG     1      -7.277   5.761  67.367  1.00  0.00     0.114 H 
HETATM    9  H   LIG     1      -6.554   8.124  67.421  1.00  0.00     0.086 H 
ENDROOT
BRANCH   1  10
HETATM   10  C   LIG     1      -8.225   8.760  62.994  1.00  0.00     0.093 C 
HETATM   11  H   LIG     1      -8.830   8.130  62.338  1.00  0.00     0.078 H 
BRANCH  10  12
HETATM   12  C   LIG     1      -8.941  10.101  63.239  1.00  0.00     0.240 C 
HETATM   13  N   LIG     1     -10.036  10.005  64.096  1.00  0.00    -0.326 N 
HETATM   14  H   LIG     1      -9.968   9.320  64.841  1.00  0.00     0.169 HD
HETATM   15  O   LIG     1      -8.607  11.133  62.658  1.00  0.00    -0.272 OA
BRANCH  13  16
HETATM   16  C   LIG     1     -10.850  11.124  64.369  1.00  0.00     0.035 A 
HETATM   17  C   LIG     1     -11.735  11.641  63.425  1.00  0.00    -0.057 A 
HETATM   18  C   LIG     1     -12.583  12.700  63.767  1.00  0.00    -0.080 A 
HETATM   19  H   LIG     1     -11.797  11.208  62.432  1.00  0.00     0.086 H 
HETATM   20  C   LIG     1     -12.503  13.289  65.029  1.00  0.00    -0.076 A 
HETATM   21  H   LIG     1     -13.299  13.079  63.042  1.00  0.00     0.083 H 
HETATM   22  C   LIG     1     -11.566  12.822  65.952  1.00  0.00    -0.052 A 
HETATM   23  H   LIG     1     -13.155  14.123  65.277  1.00  0.00     0.084 H 
HETATM   24  C   LIG     1     -10.786  11.704  65.628  1.00  0.00    -0.051 A 
HETATM   25  H   LIG     1     -10.070  11.343  66.354  1.00  0.00     0.087 H 
BRANCH  22  26
HETATM   26  C   LIG     1     -11.376  13.493  67.288  1.00  0.00    -0.017 C 
HETATM   27  H   LIG     1     -12.334  13.542  67.824  1.00  0.00     0.047 H 
HETATM   28  H   LIG     1     -10.734  12.861  67.913  1.00  0.00     0.047 H 
BRANCH  26  29
HETATM   29  C   LIG     1     -10.803  14.882  67.174  1.00  0.00    -0.054 A 
HETATM   30  C   LIG     1     -11.193  15.891  68.068  1.00  0.00    -0.075 A 
HETATM   31  C   LIG     1     -10.667  17.174  67.964  1.00  0.00    -0.060 A 
HETATM   32  H   LIG     1     -11.926  15.677  68.841  1.00  0.00     0.084 H 
HETATM   33  C   LIG     1      -9.753  17.451  66.953  1.00  0.00     0.074 A 
HETATM   34  H   LIG     1     -10.984  17.944  68.664  1.00  0.00     0.085 H 
HETATM   35  C   LIG     1      -9.347  16.464  66.050  1.00  0.00    -0.060 A 
HETATM   36  C   LIG     1      -9.880  15.176  66.165  1.00  0.00    -0.075 A 
HETATM   37  H   LIG     1      -8.640  16.680  65.260  1.00  0.00     0.085 H 
HETATM   38  H   LIG     1      -9.574  14.408  65.458  1.00  0.00     0.084 H 
BRANCH  33  39
HETATM   39  S   LIG     1      -9.047  19.062  66.823  1.00  0.00     0.239 S 
HETATM   40  O   LIG     1      -8.380  19.395  68.042  1.00  0.00    -0.206 OA
HETATM   41  O   LIG     1     -10.018  19.948  66.197  1.00  0.00    -0.206 OA
BRANCH  39  42
HETATM   42  N   LIG     1      -7.850  18.813  65.675  1.00  0.00    -0.225 NA
HETATM   43  H   LIG     1      -7.366  19.692  65.488  1.00  0.00     0.136 HD
HETATM   44  H   LIG     1      -8.237  18.362  64.849  1.00  0.00     0.136 HD
ENDBRANCH  39  42
ENDBRANCH  33  39
ENDBRANCH  26  29
ENDBRANCH  22  26
ENDBRANCH  13  16
ENDBRANCH  10  12
BRANCH  10  45
HETATM   45  S   LIG     1      -6.745   9.173  61.961  1.00  0.00    -0.163 SA
HETATM   46  H   LIG     1      -7.272  10.287  61.418  1.00  0.00     0.102 HD
ENDBRANCH  10  45
ENDBRANCH   1  10
BRANCH   6  47
HETATM   47  C   LIG     1      -6.721   9.959  65.467  1.00  0.00    -0.026 C 
HETATM   48  H   LIG     1      -6.912  10.463  64.509  1.00  0.00     0.042 H 
HETATM   49  H   LIG     1      -5.633   9.975  65.570  1.00  0.00     0.042 H 
BRANCH  47  50
HETATM   50  C   LIG     1      -7.400  10.752  66.589  1.00  0.00    -0.001 C 
HETATM   51  H   LIG     1      -7.413  10.172  67.517  1.00  0.00     0.064 H 
HETATM   52  H   LIG     1      -8.441  10.975  66.325  1.00  0.00     0.064 H 
BRANCH  50  53
HETATM   53  N   LIG     1      -6.755  12.038  66.800  1.00  0.00    -0.360 N 
HETATM   54  C   LIG     1      -7.240  12.983  67.675  1.00  0.00     0.221 C 
HETATM   55  O   LIG     1      -8.235  12.789  68.360  1.00  0.00    -0.273 OA
HETATM   56  H   LIG     1      -6.036  12.314  66.144  1.00  0.00     0.162 HD
BRANCH  54  57
HETATM   57  C   LIG     1      -6.461  14.302  67.692  1.00  0.00     0.024 C 
HETATM   58  H   LIG     1      -6.589  14.708  66.679  1.00  0.00     0.054 H 
HETATM   59  C   LIG     1      -7.083  15.324  68.660  1.00  0.00    -0.051 C 
HETATM   60  C   LIG     1      -6.650  15.181  70.118  1.00  0.00    -0.040 C 
HETATM   61  H   LIG     1      -8.180  15.270  68.621  1.00  0.00     0.034 H 
HETATM   62  H   LIG     1      -6.822  16.333  68.317  1.00  0.00     0.034 H 
HETATM   63  C   LIG     1      -5.149  15.027  70.304  1.00  0.00     0.035 C 
HETATM   64  H   LIG     1      -7.145  14.313  70.564  1.00  0.00     0.036 H 
HETATM   65  H   LIG     1      -6.999  16.071  70.660  1.00  0.00     0.036 H 
HETATM   66  H   LIG     1      -4.940  14.754  71.346  1.00  0.00     0.082 H 
HETATM   67  C   LIG     1      -4.562  13.955  69.393  1.00  0.00    -0.040 C 
HETATM   68  C   LIG     1      -4.960  14.086  67.925  1.00  0.00    -0.051 C 
HETATM   69  H   LIG     1      -4.878  12.971  69.754  1.00  0.00     0.036 H 
HETATM   70  H   LIG     1      -3.467  13.987  69.449  1.00  0.00     0.036 H 
HETATM   71  H   LIG     1      -4.605  13.183  67.414  1.00  0.00     0.034 H 
HETATM   72  H   LIG     1      -4.408  14.915  67.465  1.00  0.00     0.034 H 
BRANCH  63  73
HETATM   73  O   LIG     1      -4.503  16.270  70.056  1.00  0.00    -0.396 OA
HETATM   74  H   LIG     1      -4.140  16.581  70.906  1.00  0.00     0.210 HD
ENDBRANCH  63  73
ENDBRANCH  54  57
ENDBRANCH  50  53
ENDBRANCH  47  50
ENDBRANCH   6  47
TORSDOF 13
ENDMDL
MODEL 9
REMARK VINA RESULT:      -5.0     12.015     15.381
REMARK  13 active torsions:
REMARK  status: ('A' for Active; 'I' for Inactive)
REMARK    1  A    between atoms: N_1  and  S_2 
REMARK    2  A    between atoms: S_2  and  C_5 
REMARK    3  A    between atoms: C_8  and  C_9 
REMARK    4  A    between atoms: C_9  and  C_10 
REMARK    5  A    between atoms: C_14  and  N_15 
REMARK       I    between atoms: N_15  and  C_16 
REMARK    6  A    between atoms: C_16  and  C_18 
REMARK    7  A    between atoms: C_18  and  S_19 
REMARK    8  A    between atoms: C_18  and  C_20 
REMARK    9  A    between atoms: C_25  and  C_26 
REMARK   10  A    between atoms: C_26  and  C_27 
REMARK   11  A    between atoms: C_27  and  N_28 
REMARK       I    between atoms: N_28  and  C_29 
REMARK   12  A    between atoms: C_29  and  C_31 
REMARK   13  A    between atoms: C_35  and  O_37 
ROOT
HETATM    1  C   LIG     1      -1.379  24.696  63.149  1.00  0.00    -0.012 A 
HETATM    2  C   LIG     1      -1.286  25.322  61.898  1.00  0.00     0.010 A 
HETATM    3  N   LIG     1      -1.873  26.494  61.555  1.00  0.00    -0.272 NA
HETATM    4  C   LIG     1      -2.630  27.087  62.490  1.00  0.00     0.002 A 
HETATM    5  C   LIG     1      -2.841  26.548  63.744  1.00  0.00    -0.059 A 
HETATM    6  C   LIG     1      -2.221  25.331  64.094  1.00  0.00    -0.046 A 
HETATM    7  H   LIG     1      -0.701  24.893  61.086  1.00  0.00     0.115 H 
HETATM    8  H   LIG     1      -3.086  28.028  62.195  1.00  0.00     0.114 H 
HETATM    9  H   LIG     1      -3.489  27.075  64.440  1.00  0.00     0.086 H 
ENDROOT
BRANCH   1  10
HETATM   10  C   LIG     1      -0.603  23.409  63.426  1.00  0.00     0.093 C 
HETATM   11  H   LIG     1       0.075  23.575  64.267  1.00  0.00     0.078 H 
BRANCH  10  12
HETATM   12  C   LIG     1      -1.477  22.170  63.695  1.00  0.00     0.240 C 
HETATM   13  N   LIG     1      -2.640  22.126  62.928  1.00  0.00    -0.326 N 
HETATM   14  H   LIG     1      -2.580  22.514  61.993  1.00  0.00     0.169 HD
HETATM   15  O   LIG     1      -1.194  21.349  64.567  1.00  0.00    -0.272 OA
BRANCH  13  16
HETATM   16  C   LIG     1      -3.591  21.099  63.101  1.00  0.00     0.035 A 
HETATM   17  C   LIG     1      -3.567  19.934  62.338  1.00  0.00    -0.057 A 
HETATM   18  C   LIG     1      -4.479  18.905  62.601  1.00  0.00    -0.080 A 
HETATM   19  H   LIG     1      -2.823  19.800  61.559  1.00  0.00     0.086 H 
HETATM   20  C   LIG     1      -5.459  19.065  63.581  1.00  0.00    -0.076 A 
HETATM   21  H   LIG     1      -4.437  17.982  62.031  1.00  0.00     0.083 H 
HETATM   22  C   LIG     1      -5.534  20.262  64.297  1.00  0.00    -0.052 A 
HETATM   23  H   LIG     1      -6.174  18.266  63.764  1.00  0.00     0.084 H 
HETATM   24  C   LIG     1      -4.560  21.246  64.085  1.00  0.00    -0.051 A 
HETATM   25  H   LIG     1      -4.619  22.165  64.651  1.00  0.00     0.087 H 
BRANCH  22  26
HETATM   26  C   LIG     1      -6.637  20.515  65.291  1.00  0.00    -0.017 C 
HETATM   27  H   LIG     1      -6.914  21.578  65.282  1.00  0.00     0.047 H 
HETATM   28  H   LIG     1      -7.539  19.985  64.960  1.00  0.00     0.047 H 
BRANCH  26  29
HETATM   29  C   LIG     1      -6.270  20.112  66.695  1.00  0.00    -0.054 A 
HETATM   30  C   LIG     1      -6.130  18.757  67.034  1.00  0.00    -0.075 A 
HETATM   31  C   LIG     1      -5.794  18.381  68.330  1.00  0.00    -0.060 A 
HETATM   32  H   LIG     1      -6.302  17.989  66.285  1.00  0.00     0.084 H 
HETATM   33  C   LIG     1      -5.605  19.366  69.294  1.00  0.00     0.074 A 
HETATM   34  H   LIG     1      -5.693  17.325  68.575  1.00  0.00     0.085 H 
HETATM   35  C   LIG     1      -5.737  20.722  68.981  1.00  0.00    -0.060 A 
HETATM   36  C   LIG     1      -6.073  21.090  67.675  1.00  0.00    -0.075 A 
HETATM   37  H   LIG     1      -5.596  21.489  69.731  1.00  0.00     0.085 H 
HETATM   38  H   LIG     1      -6.187  22.144  67.431  1.00  0.00     0.084 H 
BRANCH  33  39
HETATM   39  S   LIG     1      -5.143  18.914  70.935  1.00  0.00     0.239 S 
HETATM   40  O   LIG     1      -5.315  17.507  71.113  1.00  0.00    -0.206 OA
HETATM   41  O   LIG     1      -5.697  19.892  71.861  1.00  0.00    -0.206 OA
BRANCH  39  42
HETATM   42  N   LIG     1      -3.490  19.195  70.909  1.00  0.00    -0.225 NA
HETATM   43  H   LIG     1      -3.165  19.413  71.851  1.00  0.00     0.136 HD
HETATM   44  H   LIG     1      -3.260  19.899  70.211  1.00  0.00     0.136 HD
ENDBRANCH  39  42
ENDBRANCH  33  39
ENDBRANCH  26  29
ENDBRANCH  22  26
ENDBRANCH  13  16
ENDBRANCH  10  12
BRANCH  10  45
HETATM   45  S   LIG     1       0.527  22.923  62.042  1.00  0.00    -0.163 SA
HETATM   46  H   LIG     1       1.447  23.877  62.284  1.00  0.00     0.102 HD
ENDBRANCH  10  45
ENDBRANCH   1  10
BRANCH   6  47
HETATM   47  C   LIG     1      -2.561  24.769  65.459  1.00  0.00    -0.026 C 
HETATM   48  H   LIG     1      -2.699  23.681  65.375  1.00  0.00     0.042 H 
HETATM   49  H   LIG     1      -3.528  25.138  65.811  1.00  0.00     0.042 H 
BRANCH  47  50
HETATM   50  C   LIG     1      -1.451  25.052  66.476  1.00  0.00    -0.001 C 
HETATM   51  H   LIG     1      -1.602  26.027  66.949  1.00  0.00     0.064 H 
HETATM   52  H   LIG     1      -0.473  25.073  65.981  1.00  0.00     0.064 H 
BRANCH  50  53
HETATM   53  N   LIG     1      -1.369  24.005  67.481  1.00  0.00    -0.360 N 
HETATM   54  C   LIG     1      -0.327  23.109  67.545  1.00  0.00     0.221 C 
HETATM   55  O   LIG     1       0.621  23.154  66.772  1.00  0.00    -0.273 OA
HETATM   56  H   LIG     1      -2.197  23.817  68.031  1.00  0.00     0.162 HD
BRANCH  54  57
HETATM   57  C   LIG     1      -0.468  22.034  68.627  1.00  0.00     0.024 C 
HETATM   58  H   LIG     1      -0.233  22.558  69.564  1.00  0.00     0.054 H 
HETATM   59  C   LIG     1      -1.916  21.532  68.753  1.00  0.00    -0.051 C 
HETATM   60  C   LIG     1      -2.307  20.429  67.770  1.00  0.00    -0.040 C 
HETATM   61  H   LIG     1      -2.623  22.364  68.632  1.00  0.00     0.034 H 
HETATM   62  H   LIG     1      -2.069  21.157  69.773  1.00  0.00     0.034 H 
HETATM   63  C   LIG     1      -1.294  19.299  67.676  1.00  0.00     0.035 C 
HETATM   64  H   LIG     1      -2.441  20.858  66.772  1.00  0.00     0.036 H 
HETATM   65  H   LIG     1      -3.279  20.027  68.086  1.00  0.00     0.036 H 
HETATM   66  H   LIG     1      -1.555  18.649  66.831  1.00  0.00     0.082 H 
HETATM   67  C   LIG     1       0.126  19.813  67.472  1.00  0.00    -0.040 C 
HETATM   68  C   LIG     1       0.552  20.901  68.456  1.00  0.00    -0.051 C 
HETATM   69  H   LIG     1       0.218  20.207  66.454  1.00  0.00     0.036 H 
HETATM   70  H   LIG     1       0.834  18.980  67.565  1.00  0.00     0.036 H 
HETATM   71  H   LIG     1       1.519  21.285  68.111  1.00  0.00     0.034 H 
HETATM   72  H   LIG     1       0.752  20.454  69.437  1.00  0.00     0.034 H 
BRANCH  63  73
HETATM   73  O   LIG     1      -1.350  18.504  68.853  1.00  0.00    -0.396 OA
HETATM   74  H   LIG     1      -1.534  17.588  68.574  1.00  0.00     0.210 HD
ENDBRANCH  63  73
ENDBRANCH  54  57
ENDBRANCH  50  53
ENDBRANCH  47  50
ENDBRANCH   6  47
TORSDOF 13
ENDMDL
MODEL 10
REMARK VINA RESULT:      -4.8     10.367     13.503
REMARK  13 active torsions:
REMARK  status: ('A' for Active; 'I' for Inactive)
REMARK    1  A    between atoms: N_1  and  S_2 
REMARK    2  A    between atoms: S_2  and  C_5 
REMARK    3  A    between atoms: C_8  and  C_9 
REMARK    4  A    between atoms: C_9  and  C_10 
REMARK    5  A    between atoms: C_14  and  N_15 
REMARK       I    between atoms: N_15  and  C_16 
REMARK    6  A    between atoms: C_16  and  C_18 
REMARK    7  A    between atoms: C_18  and  S_19 
REMARK    8  A    between atoms: C_18  and  C_20 
REMARK    9  A    between atoms: C_25  and  C_26 
REMARK   10  A    between atoms: C_26  and  C_27 
REMARK   11  A    between atoms: C_27  and  N_28 
REMARK       I    between atoms: N_28  and  C_29 
REMARK   12  A    between atoms: C_29  and  C_31 
REMARK   13  A    between atoms: C_35  and  O_37 
ROOT
HETATM    1  C   LIG     1      -4.141  20.984  62.008  1.00  0.00    -0.012 A 
HETATM    2  C   LIG     1      -3.607  20.910  60.714  1.00  0.00     0.010 A 
HETATM    3  N   LIG     1      -2.359  21.291  60.351  1.00  0.00    -0.272 NA
HETATM    4  C   LIG     1      -1.582  21.810  61.313  1.00  0.00     0.002 A 
HETATM    5  C   LIG     1      -2.007  21.982  62.616  1.00  0.00    -0.059 A 
HETATM    6  C   LIG     1      -3.305  21.576  62.985  1.00  0.00    -0.046 A 
HETATM    7  H   LIG     1      -4.183  20.513  59.879  1.00  0.00     0.115 H 
HETATM    8  H   LIG     1      -0.584  22.103  61.001  1.00  0.00     0.114 H 
HETATM    9  H   LIG     1      -1.328  22.434  63.335  1.00  0.00     0.086 H 
ENDROOT
BRANCH   1  10
HETATM   10  C   LIG     1      -5.543  20.449  62.295  1.00  0.00     0.093 C 
HETATM   11  H   LIG     1      -5.910  19.919  61.412  1.00  0.00     0.078 H 
BRANCH  10  12
HETATM   12  C   LIG     1      -5.650  19.540  63.533  1.00  0.00     0.240 C 
HETATM   13  N   LIG     1      -6.659  19.913  64.419  1.00  0.00    -0.326 N 
HETATM   14  H   LIG     1      -7.494  20.316  64.008  1.00  0.00     0.169 HD
HETATM   15  O   LIG     1      -4.856  18.622  63.738  1.00  0.00    -0.272 OA
BRANCH  13  16
HETATM   16  C   LIG     1      -6.846  19.235  65.641  1.00  0.00     0.035 A 
HETATM   17  C   LIG     1      -7.137  17.873  65.692  1.00  0.00    -0.057 A 
HETATM   18  C   LIG     1      -7.232  17.224  66.928  1.00  0.00    -0.080 A 
HETATM   19  H   LIG     1      -7.258  17.300  64.779  1.00  0.00     0.086 H 
HETATM   20  C   LIG     1      -7.104  17.944  68.115  1.00  0.00    -0.076 A 
HETATM   21  H   LIG     1      -7.422  16.154  66.967  1.00  0.00     0.083 H 
HETATM   22  C   LIG     1      -6.887  19.323  68.069  1.00  0.00    -0.052 A 
HETATM   23  H   LIG     1      -7.198  17.432  69.070  1.00  0.00     0.084 H 
HETATM   24  C   LIG     1      -6.705  19.943  66.826  1.00  0.00    -0.051 A 
HETATM   25  H   LIG     1      -6.527  21.009  66.800  1.00  0.00     0.087 H 
BRANCH  22  26
HETATM   26  C   LIG     1      -6.844  20.155  69.324  1.00  0.00    -0.017 C 
HETATM   27  H   LIG     1      -7.289  21.141  69.137  1.00  0.00     0.047 H 
HETATM   28  H   LIG     1      -7.492  19.690  70.078  1.00  0.00     0.047 H 
BRANCH  26  29
HETATM   29  C   LIG     1      -5.449  20.336  69.863  1.00  0.00    -0.054 A 
HETATM   30  C   LIG     1      -4.437  20.881  69.057  1.00  0.00    -0.075 A 
HETATM   31  C   LIG     1      -3.149  21.047  69.550  1.00  0.00    -0.060 A 
HETATM   32  H   LIG     1      -4.654  21.161  68.029  1.00  0.00     0.084 H 
HETATM   33  C   LIG     1      -2.868  20.659  70.856  1.00  0.00     0.074 A 
HETATM   34  H   LIG     1      -2.376  21.468  68.909  1.00  0.00     0.085 H 
HETATM   35  C   LIG     1      -3.858  20.115  71.680  1.00  0.00    -0.060 A 
HETATM   36  C   LIG     1      -5.151  19.954  71.175  1.00  0.00    -0.075 A 
HETATM   37  H   LIG     1      -3.639  19.808  72.694  1.00  0.00     0.085 H 
HETATM   38  H   LIG     1      -5.921  19.522  71.810  1.00  0.00     0.084 H 
BRANCH  33  39
HETATM   39  S   LIG     1      -1.249  20.894  71.515  1.00  0.00     0.239 S 
HETATM   40  O   LIG     1      -1.340  21.430  72.836  1.00  0.00    -0.206 OA
HETATM   41  O   LIG     1      -0.408  21.489  70.486  1.00  0.00    -0.206 OA
BRANCH  39  42
HETATM   42  N   LIG     1      -0.719  19.310  71.676  1.00  0.00    -0.225 NA
HETATM   43  H   LIG     1       0.123  19.173  71.116  1.00  0.00     0.136 HD
HETATM   44  H   LIG     1      -1.473  18.660  71.470  1.00  0.00     0.136 HD
ENDBRANCH  39  42
ENDBRANCH  33  39
ENDBRANCH  26  29
ENDBRANCH  22  26
ENDBRANCH  13  16
ENDBRANCH  10  12
BRANCH  10  45
HETATM   45  S   LIG     1      -6.799  21.785  62.555  1.00  0.00    -0.163 SA
HETATM   46  H   LIG     1      -6.476  22.017  63.842  1.00  0.00     0.102 HD
ENDBRANCH  10  45
ENDBRANCH   1  10
BRANCH   6  47
HETATM   47  C   LIG     1      -3.721  21.866  64.413  1.00  0.00    -0.026 C 
HETATM   48  H   LIG     1      -4.735  21.473  64.578  1.00  0.00     0.042 H 
HETATM   49  H   LIG     1      -3.817  22.941  64.589  1.00  0.00     0.042 H 
BRANCH  47  50
HETATM   50  C   LIG     1      -2.767  21.217  65.420  1.00  0.00    -0.001 C 
HETATM   51  H   LIG     1      -2.591  21.885  66.269  1.00  0.00     0.064 H 
HETATM   52  H   LIG     1      -1.795  21.016  64.953  1.00  0.00     0.064 H 
BRANCH  50  53
HETATM   53  N   LIG     1      -3.266  19.931  65.878  1.00  0.00    -0.360 N 
HETATM   54  C   LIG     1      -2.467  18.992  66.488  1.00  0.00     0.221 C 
HETATM   55  O   LIG     1      -1.281  19.192  66.716  1.00  0.00    -0.273 OA
HETATM   56  H   LIG     1      -4.187  19.649  65.567  1.00  0.00     0.162 HD
BRANCH  54  57
HETATM   57  C   LIG     1      -3.167  17.671  66.822  1.00  0.00     0.024 C 
HETATM   58  H   LIG     1      -4.085  17.688  66.217  1.00  0.00     0.054 H 
HETATM   59  C   LIG     1      -2.352  16.454  66.353  1.00  0.00    -0.051 C 
HETATM   60  C   LIG     1      -1.264  15.990  67.322  1.00  0.00    -0.040 C 
HETATM   61  H   LIG     1      -1.880  16.659  65.382  1.00  0.00     0.034 H 
HETATM   62  H   LIG     1      -3.041  15.618  66.179  1.00  0.00     0.034 H 
HETATM   63  C   LIG     1      -1.734  15.870  68.763  1.00  0.00     0.035 C 
HETATM   64  H   LIG     1      -0.423  16.688  67.289  1.00  0.00     0.036 H 
HETATM   65  H   LIG     1      -0.896  15.017  66.972  1.00  0.00     0.036 H 
HETATM   66  H   LIG     1      -0.865  15.709  69.414  1.00  0.00     0.082 H 
HETATM   67  C   LIG     1      -2.471  17.116  69.236  1.00  0.00    -0.040 C 
HETATM   68  C   LIG     1      -3.579  17.590  68.298  1.00  0.00    -0.051 C 
HETATM   69  H   LIG     1      -1.749  17.930  69.362  1.00  0.00     0.036 H 
HETATM   70  H   LIG     1      -2.922  16.925  70.218  1.00  0.00     0.036 H 
HETATM   71  H   LIG     1      -3.920  18.564  68.669  1.00  0.00     0.034 H 
HETATM   72  H   LIG     1      -4.447  16.926  68.386  1.00  0.00     0.034 H 
BRANCH  63  73
HETATM   73  O   LIG     1      -2.579  14.734  68.901  1.00  0.00    -0.396 OA
HETATM   74  H   LIG     1      -2.172  14.150  69.567  1.00  0.00     0.210 HD
ENDBRANCH  63  73
ENDBRANCH  54  57
ENDBRANCH  50  53
ENDBRANCH  47  50
ENDBRANCH   6  47
TORSDOF 13
ENDMDL
