MODEL 1
REMARK VINA RESULT:      -8.5      0.000      0.000
REMARK  11 active torsions:
REMARK  status: ('A' for Active; 'I' for Inactive)
REMARK    1  A    between atoms: C_1  and  C_28 
REMARK    2  A    between atoms: C_6  and  N_7 
REMARK       I    between atoms: N_7  and  C_8 
REMARK       I    between atoms: C_8  and  N_10 
REMARK    3  A    between atoms: N_10  and  C_11 
REMARK    4  A    between atoms: C_15  and  C_16 
REMARK    5  A    between atoms: C_16  and  C_17 
REMARK    6  A    between atoms: C_20  and  S_21 
REMARK    7  A    between atoms: S_21  and  N_24 
REMARK    8  A    between atoms: C_28  and  C_29 
REMARK    9  A    between atoms: C_29  and  N_30 
REMARK       I    between atoms: N_30  and  C_31 
REMARK   10  A    between atoms: C_31  and  C_33 
REMARK   11  A    between atoms: C_37  and  O_41 
ROOT
HETATM    1  C   LIG     1     -12.326  13.166  70.437  1.00  0.00    -0.027 A 
HETATM    2  C   LIG     1     -12.887  12.434  71.496  1.00  0.00    -0.058 A 
HETATM    3  C   LIG     1     -13.800  13.045  72.339  1.00  0.00     0.002 A 
HETATM    4  N   LIG     1     -14.148  14.337  72.244  1.00  0.00    -0.271 NA
HETATM    5  C   LIG     1     -13.604  15.035  71.215  1.00  0.00     0.028 A 
HETATM    6  C   LIG     1     -12.752  14.494  70.248  1.00  0.00     0.060 A 
HETATM    7  H   LIG     1     -12.623  11.395  71.669  1.00  0.00     0.086 H 
HETATM    8  H   LIG     1     -14.285  12.496  73.140  1.00  0.00     0.114 H 
HETATM    9  H   LIG     1     -13.928  16.069  71.197  1.00  0.00     0.118 H 
ENDROOT
BRANCH   6  10
HETATM   10  N   LIG     1     -12.334  15.198  69.092  1.00  0.00    -0.307 N 
HETATM   11  C   LIG     1     -11.397  16.211  69.045  1.00  0.00     0.325 C 
HETATM   12  O   LIG     1     -10.886  16.713  70.036  1.00  0.00    -0.247 OA
HETATM   13  N   LIG     1     -11.128  16.580  67.732  1.00  0.00    -0.309 N 
HETATM   14  H   LIG     1     -11.455  15.956  67.013  1.00  0.00     0.170 HD
HETATM   15  H   LIG     1     -12.898  15.086  68.268  1.00  0.00     0.170 HD
BRANCH  13  16
HETATM   16  C   LIG     1     -10.227  17.591  67.324  1.00  0.00     0.036 A 
HETATM   17  C   LIG     1     -10.623  18.912  67.109  1.00  0.00    -0.057 A 
HETATM   18  C   LIG     1      -9.696  19.894  66.786  1.00  0.00    -0.080 A 
HETATM   19  H   LIG     1     -11.652  19.234  67.209  1.00  0.00     0.086 H 
HETATM   20  C   LIG     1      -8.359  19.560  66.641  1.00  0.00    -0.076 A 
HETATM   21  H   LIG     1     -10.021  20.922  66.661  1.00  0.00     0.083 H 
HETATM   22  C   LIG     1      -7.924  18.238  66.806  1.00  0.00    -0.052 A 
HETATM   23  H   LIG     1      -7.668  20.361  66.399  1.00  0.00     0.084 H 
HETATM   24  C   LIG     1      -8.875  17.255  67.151  1.00  0.00    -0.051 A 
HETATM   25  H   LIG     1      -8.547  16.227  67.289  1.00  0.00     0.087 H 
BRANCH  22  26
HETATM   26  C   LIG     1      -6.469  17.851  66.633  1.00  0.00    -0.017 C 
HETATM   27  H   LIG     1      -6.137  18.155  65.631  1.00  0.00     0.047 H 
HETATM   28  H   LIG     1      -6.387  16.757  66.666  1.00  0.00     0.047 H 
BRANCH  26  29
HETATM   29  C   LIG     1      -5.509  18.434  67.655  1.00  0.00    -0.054 A 
HETATM   30  C   LIG     1      -5.565  18.018  68.995  1.00  0.00    -0.075 A 
HETATM   31  C   LIG     1      -4.700  18.568  69.943  1.00  0.00    -0.060 A 
HETATM   32  H   LIG     1      -6.289  17.268  69.306  1.00  0.00     0.084 H 
HETATM   33  C   LIG     1      -3.784  19.549  69.550  1.00  0.00     0.074 A 
HETATM   34  H   LIG     1      -4.736  18.220  70.972  1.00  0.00     0.085 H 
HETATM   35  C   LIG     1      -3.741  19.997  68.229  1.00  0.00    -0.060 A 
HETATM   36  C   LIG     1      -4.609  19.447  67.286  1.00  0.00    -0.075 A 
HETATM   37  H   LIG     1      -3.029  20.763  67.922  1.00  0.00     0.085 H 
HETATM   38  H   LIG     1      -4.586  19.814  66.261  1.00  0.00     0.084 H 
BRANCH  33  39
HETATM   39  S   LIG     1      -2.629  20.202  70.726  1.00  0.00     0.239 S 
HETATM   40  O   LIG     1      -1.511  19.268  70.823  1.00  0.00    -0.206 OA
HETATM   41  O   LIG     1      -2.445  21.595  70.470  1.00  0.00    -0.206 OA
BRANCH  39  42
HETATM   42  N   LIG     1      -3.500  20.097  72.160  1.00  0.00    -0.225 NA
HETATM   43  H   LIG     1      -3.291  20.848  72.819  1.00  0.00     0.136 HD
HETATM   44  H   LIG     1      -3.349  19.174  72.566  1.00  0.00     0.136 HD
ENDBRANCH  39  42
ENDBRANCH  33  39
ENDBRANCH  26  29
ENDBRANCH  22  26
ENDBRANCH  13  16
ENDBRANCH   6  10
BRANCH   1  45
HETATM   45  C   LIG     1     -11.276  12.496  69.576  1.00  0.00    -0.024 C 
HETATM   46  H   LIG     1     -10.456  12.163  70.224  1.00  0.00     0.042 H 
HETATM   47  H   LIG     1     -10.834  13.238  68.899  1.00  0.00     0.042 H 
BRANCH  45  48
HETATM   48  C   LIG     1     -11.768  11.316  68.721  1.00  0.00    -0.001 C 
HETATM   49  H   LIG     1     -12.695  10.884  69.109  1.00  0.00     0.064 H 
HETATM   50  H   LIG     1     -11.011  10.522  68.753  1.00  0.00     0.064 H 
BRANCH  48  51
HETATM   51  N   LIG     1     -11.944  11.650  67.322  1.00  0.00    -0.360 N 
HETATM   52  C   LIG     1     -10.942  11.504  66.382  1.00  0.00     0.221 C 
HETATM   53  O   LIG     1      -9.814  11.118  66.671  1.00  0.00    -0.273 OA
HETATM   54  H   LIG     1     -12.865  11.935  67.023  1.00  0.00     0.162 HD
BRANCH  52  55
HETATM   55  C   LIG     1     -11.315  12.000  64.979  1.00  0.00     0.024 C 
HETATM   56  H   LIG     1     -11.311  11.086  64.369  1.00  0.00     0.054 H 
HETATM   57  C   LIG     1     -12.741  12.573  64.909  1.00  0.00    -0.051 C 
HETATM   58  C   LIG     1     -12.865  13.998  65.455  1.00  0.00    -0.040 C 
HETATM   59  H   LIG     1     -13.451  11.924  65.437  1.00  0.00     0.034 H 
HETATM   60  H   LIG     1     -13.056  12.577  63.857  1.00  0.00     0.034 H 
HETATM   61  C   LIG     1     -11.835  14.950  64.853  1.00  0.00     0.035 C 
HETATM   62  H   LIG     1     -12.762  13.989  66.546  1.00  0.00     0.036 H 
HETATM   63  H   LIG     1     -13.874  14.363  65.228  1.00  0.00     0.036 H 
HETATM   64  H   LIG     1     -11.873  15.918  65.363  1.00  0.00     0.082 H 
HETATM   65  C   LIG     1     -10.417  14.392  64.935  1.00  0.00    -0.040 C 
HETATM   66  C   LIG     1     -10.305  12.979  64.369  1.00  0.00    -0.051 C 
HETATM   67  H   LIG     1     -10.080  14.395  65.977  1.00  0.00     0.036 H 
HETATM   68  H   LIG     1      -9.734  15.038  64.369  1.00  0.00     0.036 H 
HETATM   69  H   LIG     1      -9.273  12.638  64.495  1.00  0.00     0.034 H 
HETATM   70  H   LIG     1     -10.472  13.012  63.284  1.00  0.00     0.034 H 
BRANCH  61  71
HETATM   71  O   LIG     1     -12.145  15.184  63.481  1.00  0.00    -0.396 OA
HETATM   72  H   LIG     1     -11.663  15.986  63.210  1.00  0.00     0.210 HD
ENDBRANCH  61  71
ENDBRANCH  52  55
ENDBRANCH  48  51
ENDBRANCH  45  48
ENDBRANCH   1  45
TORSDOF 11
ENDMDL
MODEL 2
REMARK VINA RESULT:      -8.1      2.535      2.771
REMARK  11 active torsions:
REMARK  status: ('A' for Active; 'I' for Inactive)
REMARK    1  A    between atoms: C_1  and  C_28 
REMARK    2  A    between atoms: C_6  and  N_7 
REMARK       I    between atoms: N_7  and  C_8 
REMARK       I    between atoms: C_8  and  N_10 
REMARK    3  A    between atoms: N_10  and  C_11 
REMARK    4  A    between atoms: C_15  and  C_16 
REMARK    5  A    between atoms: C_16  and  C_17 
REMARK    6  A    between atoms: C_20  and  S_21 
REMARK    7  A    between atoms: S_21  and  N_24 
REMARK    8  A    between atoms: C_28  and  C_29 
REMARK    9  A    between atoms: C_29  and  N_30 
REMARK       I    between atoms: N_30  and  C_31 
REMARK   10  A    between atoms: C_31  and  C_33 
REMARK   11  A    between atoms: C_37  and  O_41 
ROOT
HETATM    1  C   LIG     1     -12.301  13.026  70.427  1.00  0.00    -0.027 A 
HETATM    2  C   LIG     1     -12.871  12.255  71.454  1.00  0.00    -0.058 A 
HETATM    3  C   LIG     1     -13.803  12.831  72.301  1.00  0.00     0.002 A 
HETATM    4  N   LIG     1     -14.163  14.122  72.240  1.00  0.00    -0.271 NA
HETATM    5  C   LIG     1     -13.611  14.856  71.241  1.00  0.00     0.028 A 
HETATM    6  C   LIG     1     -12.739  14.354  70.272  1.00  0.00     0.060 A 
HETATM    7  H   LIG     1     -12.597  11.215  71.600  1.00  0.00     0.086 H 
HETATM    8  H   LIG     1     -14.294  12.253  73.077  1.00  0.00     0.114 H 
HETATM    9  H   LIG     1     -13.945  15.888  71.250  1.00  0.00     0.118 H 
ENDROOT
BRANCH   6  10
HETATM   10  N   LIG     1     -12.311  15.097  69.145  1.00  0.00    -0.307 N 
HETATM   11  C   LIG     1     -11.430  16.162  69.152  1.00  0.00     0.325 C 
HETATM   12  O   LIG     1     -10.991  16.676  70.171  1.00  0.00    -0.247 OA
HETATM   13  N   LIG     1     -11.125  16.565  67.858  1.00  0.00    -0.309 N 
HETATM   14  H   LIG     1     -11.385  15.934  67.116  1.00  0.00     0.170 HD
HETATM   15  H   LIG     1     -12.831  14.967  68.295  1.00  0.00     0.170 HD
BRANCH  13  16
HETATM   16  C   LIG     1     -10.265  17.629  67.503  1.00  0.00     0.036 A 
HETATM   17  C   LIG     1     -10.736  18.902  67.171  1.00  0.00    -0.057 A 
HETATM   18  C   LIG     1      -9.858  19.943  66.905  1.00  0.00    -0.080 A 
HETATM   19  H   LIG     1     -11.793  19.138  67.132  1.00  0.00     0.086 H 
HETATM   20  C   LIG     1      -8.491  19.720  66.935  1.00  0.00    -0.076 A 
HETATM   21  H   LIG     1     -10.247  20.933  66.687  1.00  0.00     0.083 H 
HETATM   22  C   LIG     1      -7.975  18.448  67.222  1.00  0.00    -0.052 A 
HETATM   23  H   LIG     1      -7.842  20.564  66.732  1.00  0.00     0.084 H 
HETATM   24  C   LIG     1      -8.879  17.404  67.507  1.00  0.00    -0.051 A 
HETATM   25  H   LIG     1      -8.489  16.415  67.738  1.00  0.00     0.087 H 
BRANCH  22  26
HETATM   26  C   LIG     1      -6.484  18.180  67.241  1.00  0.00    -0.017 C 
HETATM   27  H   LIG     1      -5.961  19.096  67.548  1.00  0.00     0.047 H 
HETATM   28  H   LIG     1      -6.150  17.962  66.218  1.00  0.00     0.047 H 
BRANCH  26  29
HETATM   29  C   LIG     1      -6.033  17.045  68.143  1.00  0.00    -0.054 A 
HETATM   30  C   LIG     1      -5.854  17.264  69.518  1.00  0.00    -0.075 A 
HETATM   31  C   LIG     1      -5.418  16.229  70.349  1.00  0.00    -0.060 A 
HETATM   32  H   LIG     1      -6.046  18.246  69.947  1.00  0.00     0.084 H 
HETATM   33  C   LIG     1      -5.148  14.973  69.797  1.00  0.00     0.074 A 
HETATM   34  H   LIG     1      -5.306  16.405  71.416  1.00  0.00     0.085 H 
HETATM   35  C   LIG     1      -5.289  14.750  68.426  1.00  0.00    -0.060 A 
HETATM   36  C   LIG     1      -5.722  15.787  67.601  1.00  0.00    -0.075 A 
HETATM   37  H   LIG     1      -5.077  13.772  67.995  1.00  0.00     0.085 H 
HETATM   38  H   LIG     1      -5.811  15.615  66.529  1.00  0.00     0.084 H 
BRANCH  33  39
HETATM   39  S   LIG     1      -4.667  13.630  70.850  1.00  0.00     0.239 S 
HETATM   40  O   LIG     1      -3.462  13.027  70.289  1.00  0.00    -0.206 OA
HETATM   41  O   LIG     1      -4.750  14.056  72.211  1.00  0.00    -0.206 OA
BRANCH  39  42
HETATM   42  N   LIG     1      -5.929  12.543  70.619  1.00  0.00    -0.225 NA
HETATM   43  H   LIG     1      -5.942  11.784  71.302  1.00  0.00     0.136 HD
HETATM   44  H   LIG     1      -5.892  12.200  69.660  1.00  0.00     0.136 HD
ENDBRANCH  39  42
ENDBRANCH  33  39
ENDBRANCH  26  29
ENDBRANCH  22  26
ENDBRANCH  13  16
ENDBRANCH   6  10
BRANCH   1  45
HETATM   45  C   LIG     1     -11.231  12.393  69.563  1.00  0.00    -0.024 C 
HETATM   46  H   LIG     1     -10.410  12.065  70.211  1.00  0.00     0.042 H 
HETATM   47  H   LIG     1     -10.798  13.157  68.903  1.00  0.00     0.042 H 
BRANCH  45  48
HETATM   48  C   LIG     1     -11.692  11.219  68.682  1.00  0.00    -0.001 C 
HETATM   49  H   LIG     1     -12.588  10.734  69.078  1.00  0.00     0.064 H 
HETATM   50  H   LIG     1     -10.900  10.460  68.669  1.00  0.00     0.064 H 
BRANCH  48  51
HETATM   51  N   LIG     1     -11.919  11.589  67.299  1.00  0.00    -0.360 N 
HETATM   52  C   LIG     1     -10.936  11.521  66.330  1.00  0.00     0.221 C 
HETATM   53  O   LIG     1      -9.784  11.179  66.579  1.00  0.00    -0.273 OA
HETATM   54  H   LIG     1     -12.860  11.840  67.032  1.00  0.00     0.162 HD
BRANCH  52  55
HETATM   55  C   LIG     1     -11.368  12.044  64.955  1.00  0.00     0.024 C 
HETATM   56  H   LIG     1     -11.414  11.138  64.333  1.00  0.00     0.054 H 
HETATM   57  C   LIG     1     -12.783  12.647  64.963  1.00  0.00    -0.051 C 
HETATM   58  C   LIG     1     -12.849  14.067  65.532  1.00  0.00    -0.040 C 
HETATM   59  H   LIG     1     -13.480  12.006  65.518  1.00  0.00     0.034 H 
HETATM   60  H   LIG     1     -13.149  12.672  63.929  1.00  0.00     0.034 H 
HETATM   61  C   LIG     1     -11.829  15.005  64.891  1.00  0.00     0.035 C 
HETATM   62  H   LIG     1     -12.692  14.041  66.616  1.00  0.00     0.036 H 
HETATM   63  H   LIG     1     -13.860  14.456  65.361  1.00  0.00     0.036 H 
HETATM   64  H   LIG     1     -11.821  15.967  65.414  1.00  0.00     0.082 H 
HETATM   65  C   LIG     1     -10.421  14.416  64.895  1.00  0.00    -0.040 C 
HETATM   66  C   LIG     1     -10.369  13.009  64.306  1.00  0.00    -0.051 C 
HETATM   67  H   LIG     1     -10.034  14.398  65.918  1.00  0.00     0.036 H 
HETATM   68  H   LIG     1      -9.754  15.055  64.303  1.00  0.00     0.036 H 
HETATM   69  H   LIG     1      -9.339  12.645  64.376  1.00  0.00     0.034 H 
HETATM   70  H   LIG     1     -10.589  13.060  63.232  1.00  0.00     0.034 H 
BRANCH  61  71
HETATM   71  O   LIG     1     -12.203  15.263  63.539  1.00  0.00    -0.396 OA
HETATM   72  H   LIG     1     -11.506  15.823  63.150  1.00  0.00     0.210 HD
ENDBRANCH  61  71
ENDBRANCH  52  55
ENDBRANCH  48  51
ENDBRANCH  45  48
ENDBRANCH   1  45
TORSDOF 11
ENDMDL
MODEL 3
REMARK VINA RESULT:      -7.9      2.241      4.932
REMARK  11 active torsions:
REMARK  status: ('A' for Active; 'I' for Inactive)
REMARK    1  A    between atoms: C_1  and  C_28 
REMARK    2  A    between atoms: C_6  and  N_7 
REMARK       I    between atoms: N_7  and  C_8 
REMARK       I    between atoms: C_8  and  N_10 
REMARK    3  A    between atoms: N_10  and  C_11 
REMARK    4  A    between atoms: C_15  and  C_16 
REMARK    5  A    between atoms: C_16  and  C_17 
REMARK    6  A    between atoms: C_20  and  S_21 
REMARK    7  A    between atoms: S_21  and  N_24 
REMARK    8  A    between atoms: C_28  and  C_29 
REMARK    9  A    between atoms: C_29  and  N_30 
REMARK       I    between atoms: N_30  and  C_31 
REMARK   10  A    between atoms: C_31  and  C_33 
REMARK   11  A    between atoms: C_37  and  O_41 
ROOT
HETATM    1  C   LIG     1     -10.438  13.653  66.203  1.00  0.00    -0.027 A 
HETATM    2  C   LIG     1     -11.486  12.721  66.122  1.00  0.00    -0.058 A 
HETATM    3  C   LIG     1     -12.540  12.956  65.254  1.00  0.00     0.002 A 
HETATM    4  N   LIG     1     -12.656  14.066  64.512  1.00  0.00    -0.271 NA
HETATM    5  C   LIG     1     -11.636  14.957  64.594  1.00  0.00     0.028 A 
HETATM    6  C   LIG     1     -10.480  14.776  65.358  1.00  0.00     0.060 A 
HETATM    7  H   LIG     1     -11.490  11.818  66.724  1.00  0.00     0.086 H 
HETATM    8  H   LIG     1     -13.343  12.237  65.135  1.00  0.00     0.114 H 
HETATM    9  H   LIG     1     -11.794  15.829  63.969  1.00  0.00     0.118 H 
ENDROOT
BRANCH   6  10
HETATM   10  N   LIG     1      -9.359  15.639  65.296  1.00  0.00    -0.307 N 
HETATM   11  C   LIG     1      -9.185  16.810  66.008  1.00  0.00     0.325 C 
HETATM   12  O   LIG     1     -10.050  17.315  66.710  1.00  0.00    -0.247 OA
HETATM   13  N   LIG     1      -7.912  17.330  65.810  1.00  0.00    -0.309 N 
HETATM   14  H   LIG     1      -7.237  16.717  65.382  1.00  0.00     0.170 HD
HETATM   15  H   LIG     1      -8.719  15.493  64.535  1.00  0.00     0.170 HD
BRANCH  13  16
HETATM   16  C   LIG     1      -7.406  18.521  66.380  1.00  0.00     0.036 A 
HETATM   17  C   LIG     1      -7.116  19.657  65.620  1.00  0.00    -0.057 A 
HETATM   18  C   LIG     1      -6.696  20.834  66.225  1.00  0.00    -0.080 A 
HETATM   19  H   LIG     1      -7.229  19.680  64.543  1.00  0.00     0.086 H 
HETATM   20  C   LIG     1      -6.528  20.883  67.599  1.00  0.00    -0.076 A 
HETATM   21  H   LIG     1      -6.513  21.715  65.618  1.00  0.00     0.083 H 
HETATM   22  C   LIG     1      -6.767  19.754  68.396  1.00  0.00    -0.052 A 
HETATM   23  H   LIG     1      -6.209  21.826  68.030  1.00  0.00     0.084 H 
HETATM   24  C   LIG     1      -7.210  18.571  67.769  1.00  0.00    -0.051 A 
HETATM   25  H   LIG     1      -7.405  17.691  68.379  1.00  0.00     0.087 H 
BRANCH  22  26
HETATM   26  C   LIG     1      -6.570  19.784  69.898  1.00  0.00    -0.017 C 
HETATM   27  H   LIG     1      -6.975  18.858  70.328  1.00  0.00     0.047 H 
HETATM   28  H   LIG     1      -7.166  20.605  70.317  1.00  0.00     0.047 H 
BRANCH  26  29
HETATM   29  C   LIG     1      -5.135  19.945  70.368  1.00  0.00    -0.054 A 
HETATM   30  C   LIG     1      -4.815  20.900  71.346  1.00  0.00    -0.075 A 
HETATM   31  C   LIG     1      -3.493  21.068  71.766  1.00  0.00    -0.060 A 
HETATM   32  H   LIG     1      -5.595  21.522  71.780  1.00  0.00     0.084 H 
HETATM   33  C   LIG     1      -2.487  20.285  71.192  1.00  0.00     0.074 A 
HETATM   34  H   LIG     1      -3.262  21.793  72.541  1.00  0.00     0.085 H 
HETATM   35  C   LIG     1      -2.786  19.355  70.195  1.00  0.00    -0.060 A 
HETATM   36  C   LIG     1      -4.106  19.193  69.777  1.00  0.00    -0.075 A 
HETATM   37  H   LIG     1      -2.001  18.746  69.746  1.00  0.00     0.085 H 
HETATM   38  H   LIG     1      -4.332  18.483  68.984  1.00  0.00     0.084 H 
BRANCH  33  39
HETATM   39  S   LIG     1      -0.816  20.432  71.769  1.00  0.00     0.239 S 
HETATM   40  O   LIG     1      -0.062  19.292  71.259  1.00  0.00    -0.206 OA
HETATM   41  O   LIG     1      -0.382  21.782  71.589  1.00  0.00    -0.206 OA
BRANCH  39  42
HETATM   42  N   LIG     1      -1.003  20.214  73.425  1.00  0.00    -0.225 NA
HETATM   43  H   LIG     1      -0.118  20.114  73.924  1.00  0.00     0.136 HD
HETATM   44  H   LIG     1      -1.627  19.423  73.581  1.00  0.00     0.136 HD
ENDBRANCH  39  42
ENDBRANCH  33  39
ENDBRANCH  26  29
ENDBRANCH  22  26
ENDBRANCH  13  16
ENDBRANCH   6  10
BRANCH   1  45
HETATM   45  C   LIG     1      -9.336  13.409  67.214  1.00  0.00    -0.024 C 
HETATM   46  H   LIG     1      -8.702  14.302  67.259  1.00  0.00     0.042 H 
HETATM   47  H   LIG     1      -8.684  12.603  66.853  1.00  0.00     0.042 H 
BRANCH  45  48
HETATM   48  C   LIG     1      -9.802  13.036  68.632  1.00  0.00    -0.001 C 
HETATM   49  H   LIG     1      -8.965  12.774  69.285  1.00  0.00     0.064 H 
HETATM   50  H   LIG     1     -10.444  12.149  68.567  1.00  0.00     0.064 H 
BRANCH  48  51
HETATM   51  N   LIG     1     -10.600  14.067  69.266  1.00  0.00    -0.360 N 
HETATM   52  C   LIG     1     -11.817  13.810  69.869  1.00  0.00     0.221 C 
HETATM   53  O   LIG     1     -12.332  12.697  69.875  1.00  0.00    -0.273 OA
HETATM   54  H   LIG     1     -10.205  14.994  69.324  1.00  0.00     0.162 HD
BRANCH  52  55
HETATM   55  C   LIG     1     -12.534  15.059  70.399  1.00  0.00     0.024 C 
HETATM   56  H   LIG     1     -12.720  15.657  69.496  1.00  0.00     0.054 H 
HETATM   57  C   LIG     1     -13.909  14.742  71.012  1.00  0.00    -0.051 C 
HETATM   58  C   LIG     1     -13.839  14.170  72.431  1.00  0.00    -0.040 C 
HETATM   59  H   LIG     1     -14.473  14.051  70.374  1.00  0.00     0.034 H 
HETATM   60  H   LIG     1     -14.491  15.673  71.043  1.00  0.00     0.034 H 
HETATM   61  C   LIG     1     -12.977  15.016  73.364  1.00  0.00     0.035 C 
HETATM   62  H   LIG     1     -13.452  13.146  72.401  1.00  0.00     0.036 H 
HETATM   63  H   LIG     1     -14.861  14.118  72.827  1.00  0.00     0.036 H 
HETATM   64  H   LIG     1     -12.848  14.506  74.324  1.00  0.00     0.082 H 
HETATM   65  C   LIG     1     -11.606  15.319  72.766  1.00  0.00    -0.040 C 
HETATM   66  C   LIG     1     -11.692  15.907  71.360  1.00  0.00    -0.051 C 
HETATM   67  H   LIG     1     -11.005  14.404  72.742  1.00  0.00     0.036 H 
HETATM   68  H   LIG     1     -11.078  16.040  73.402  1.00  0.00     0.036 H 
HETATM   69  H   LIG     1     -10.675  16.063  70.989  1.00  0.00     0.034 H 
HETATM   70  H   LIG     1     -12.140  16.908  71.416  1.00  0.00     0.034 H 
BRANCH  61  71
HETATM   71  O   LIG     1     -13.633  16.254  73.629  1.00  0.00    -0.396 OA
HETATM   72  H   LIG     1     -12.985  16.834  74.068  1.00  0.00     0.210 HD
ENDBRANCH  61  71
ENDBRANCH  52  55
ENDBRANCH  48  51
ENDBRANCH  45  48
ENDBRANCH   1  45
TORSDOF 11
ENDMDL
MODEL 4
REMARK VINA RESULT:      -7.8      5.709      9.388
REMARK  11 active torsions:
REMARK  status: ('A' for Active; 'I' for Inactive)
REMARK    1  A    between atoms: C_1  and  C_28 
REMARK    2  A    between atoms: C_6  and  N_7 
REMARK       I    between atoms: N_7  and  C_8 
REMARK       I    between atoms: C_8  and  N_10 
REMARK    3  A    between atoms: N_10  and  C_11 
REMARK    4  A    between atoms: C_15  and  C_16 
REMARK    5  A    between atoms: C_16  and  C_17 
REMARK    6  A    between atoms: C_20  and  S_21 
REMARK    7  A    between atoms: S_21  and  N_24 
REMARK    8  A    between atoms: C_28  and  C_29 
REMARK    9  A    between atoms: C_29  and  N_30 
REMARK       I    between atoms: N_30  and  C_31 
REMARK   10  A    between atoms: C_31  and  C_33 
REMARK   11  A    between atoms: C_37  and  O_41 
ROOT
HETATM    1  C   LIG     1      -7.558   7.466  61.872  1.00  0.00    -0.027 A 
HETATM    2  C   LIG     1      -6.433   7.020  61.160  1.00  0.00    -0.058 A 
HETATM    3  C   LIG     1      -6.166   7.550  59.908  1.00  0.00     0.002 A 
HETATM    4  N   LIG     1      -6.961   8.438  59.293  1.00  0.00    -0.271 NA
HETATM    5  C   LIG     1      -8.043   8.865  59.992  1.00  0.00     0.028 A 
HETATM    6  C   LIG     1      -8.352   8.475  61.298  1.00  0.00     0.060 A 
HETATM    7  H   LIG     1      -5.764   6.269  61.569  1.00  0.00     0.086 H 
HETATM    8  H   LIG     1      -5.282   7.260  59.350  1.00  0.00     0.114 H 
HETATM    9  H   LIG     1      -8.640   9.581  59.438  1.00  0.00     0.118 H 
ENDROOT
BRANCH   6  10
HETATM   10  N   LIG     1      -9.389   9.061  62.064  1.00  0.00    -0.307 N 
HETATM   11  C   LIG     1      -9.387  10.329  62.612  1.00  0.00     0.325 C 
HETATM   12  O   LIG     1      -8.418  11.075  62.597  1.00  0.00    -0.247 OA
HETATM   13  N   LIG     1     -10.619  10.630  63.180  1.00  0.00    -0.309 N 
HETATM   14  H   LIG     1     -11.384  10.019  62.943  1.00  0.00     0.170 HD
HETATM   15  H   LIG     1     -10.106   8.443  62.400  1.00  0.00     0.170 HD
BRANCH  13  16
HETATM   16  C   LIG     1     -10.957  11.837  63.833  1.00  0.00     0.036 A 
HETATM   17  C   LIG     1     -11.908  12.727  63.329  1.00  0.00    -0.057 A 
HETATM   18  C   LIG     1     -12.272  13.863  64.039  1.00  0.00    -0.080 A 
HETATM   19  H   LIG     1     -12.418  12.561  62.388  1.00  0.00     0.086 H 
HETATM   20  C   LIG     1     -11.664  14.145  65.251  1.00  0.00    -0.076 A 
HETATM   21  H   LIG     1     -13.041  14.520  63.645  1.00  0.00     0.083 H 
HETATM   22  C   LIG     1     -10.674  13.301  65.774  1.00  0.00    -0.052 A 
HETATM   23  H   LIG     1     -11.987  15.037  65.777  1.00  0.00     0.084 H 
HETATM   24  C   LIG     1     -10.327  12.142  65.050  1.00  0.00    -0.051 A 
HETATM   25  H   LIG     1      -9.565  11.476  65.450  1.00  0.00     0.087 H 
BRANCH  22  26
HETATM   26  C   LIG     1      -9.984  13.603  67.090  1.00  0.00    -0.017 C 
HETATM   27  H   LIG     1      -9.324  14.471  66.954  1.00  0.00     0.047 H 
HETATM   28  H   LIG     1      -9.334  12.758  67.351  1.00  0.00     0.047 H 
BRANCH  26  29
HETATM   29  C   LIG     1     -10.906  13.879  68.264  1.00  0.00    -0.054 A 
HETATM   30  C   LIG     1     -11.184  15.200  68.650  1.00  0.00    -0.075 A 
HETATM   31  C   LIG     1     -12.012  15.460  69.744  1.00  0.00    -0.060 A 
HETATM   32  H   LIG     1     -10.748  16.034  68.103  1.00  0.00     0.084 H 
HETATM   33  C   LIG     1     -12.554  14.389  70.463  1.00  0.00     0.074 A 
HETATM   34  H   LIG     1     -12.239  16.487  70.017  1.00  0.00     0.085 H 
HETATM   35  C   LIG     1     -12.260  13.071  70.111  1.00  0.00    -0.060 A 
HETATM   36  C   LIG     1     -11.430  12.818  69.020  1.00  0.00    -0.075 A 
HETATM   37  H   LIG     1     -12.681  12.237  70.672  1.00  0.00     0.085 H 
HETATM   38  H   LIG     1     -11.186  11.788  68.762  1.00  0.00     0.084 H 
BRANCH  33  39
HETATM   39  S   LIG     1     -13.669  14.702  71.806  1.00  0.00     0.239 S 
HETATM   40  O   LIG     1     -14.002  13.421  72.421  1.00  0.00    -0.206 OA
HETATM   41  O   LIG     1     -13.184  15.813  72.561  1.00  0.00    -0.206 OA
BRANCH  39  42
HETATM   42  N   LIG     1     -15.040  15.245  70.997  1.00  0.00    -0.225 NA
HETATM   43  H   LIG     1     -15.521  14.511  70.475  1.00  0.00     0.136 HD
HETATM   44  H   LIG     1     -14.778  16.033  70.406  1.00  0.00     0.136 HD
ENDBRANCH  39  42
ENDBRANCH  33  39
ENDBRANCH  26  29
ENDBRANCH  22  26
ENDBRANCH  13  16
ENDBRANCH   6  10
BRANCH   1  45
HETATM   45  C   LIG     1      -7.868   6.817  63.206  1.00  0.00    -0.024 C 
HETATM   46  H   LIG     1      -7.307   5.878  63.274  1.00  0.00     0.042 H 
HETATM   47  H   LIG     1      -8.927   6.531  63.233  1.00  0.00     0.042 H 
BRANCH  45  48
HETATM   48  C   LIG     1      -7.582   7.678  64.448  1.00  0.00    -0.001 C 
HETATM   49  H   LIG     1      -7.094   8.622  64.193  1.00  0.00     0.064 H 
HETATM   50  H   LIG     1      -6.892   7.130  65.102  1.00  0.00     0.064 H 
BRANCH  48  51
HETATM   51  N   LIG     1      -8.762   7.950  65.246  1.00  0.00    -0.360 N 
HETATM   52  C   LIG     1      -9.205   7.105  66.246  1.00  0.00     0.221 C 
HETATM   53  O   LIG     1      -8.655   6.040  66.505  1.00  0.00    -0.273 OA
HETATM   54  H   LIG     1      -9.230   8.832  65.100  1.00  0.00     0.162 HD
BRANCH  52  55
HETATM   55  C   LIG     1     -10.521   7.540  66.902  1.00  0.00     0.024 C 
HETATM   56  H   LIG     1     -11.287   7.259  66.165  1.00  0.00     0.054 H 
HETATM   57  C   LIG     1     -10.835   6.756  68.188  1.00  0.00    -0.051 C 
HETATM   58  C   LIG     1     -10.055   7.238  69.415  1.00  0.00    -0.040 C 
HETATM   59  H   LIG     1     -10.655   5.683  68.047  1.00  0.00     0.034 H 
HETATM   60  H   LIG     1     -11.907   6.860  68.398  1.00  0.00     0.034 H 
HETATM   61  C   LIG     1     -10.160   8.746  69.623  1.00  0.00     0.035 C 
HETATM   62  H   LIG     1      -9.001   6.954  69.321  1.00  0.00     0.036 H 
HETATM   63  H   LIG     1     -10.453   6.720  70.296  1.00  0.00     0.036 H 
HETATM   64  H   LIG     1      -9.487   9.064  70.426  1.00  0.00     0.082 H 
HETATM   65  C   LIG     1      -9.835   9.528  68.353  1.00  0.00    -0.040 C 
HETATM   66  C   LIG     1     -10.635   9.051  67.144  1.00  0.00    -0.051 C 
HETATM   67  H   LIG     1      -8.765   9.448  68.137  1.00  0.00     0.036 H 
HETATM   68  H   LIG     1     -10.059  10.591  68.508  1.00  0.00     0.036 H 
HETATM   69  H   LIG     1     -10.321   9.632  66.272  1.00  0.00     0.034 H 
HETATM   70  H   LIG     1     -11.694   9.295  67.294  1.00  0.00     0.034 H 
BRANCH  61  71
HETATM   71  O   LIG     1     -11.487   9.081  70.027  1.00  0.00    -0.396 OA
HETATM   72  H   LIG     1     -11.767   9.844  69.490  1.00  0.00     0.210 HD
ENDBRANCH  61  71
ENDBRANCH  52  55
ENDBRANCH  48  51
ENDBRANCH  45  48
ENDBRANCH   1  45
TORSDOF 11
ENDMDL
MODEL 5
REMARK VINA RESULT:      -7.7      4.792     10.531
REMARK  11 active torsions:
REMARK  status: ('A' for Active; 'I' for Inactive)
REMARK    1  A    between atoms: C_1  and  C_28 
REMARK    2  A    between atoms: C_6  and  N_7 
REMARK       I    between atoms: N_7  and  C_8 
REMARK       I    between atoms: C_8  and  N_10 
REMARK    3  A    between atoms: N_10  and  C_11 
REMARK    4  A    between atoms: C_15  and  C_16 
REMARK    5  A    between atoms: C_16  and  C_17 
REMARK    6  A    between atoms: C_20  and  S_21 
REMARK    7  A    between atoms: S_21  and  N_24 
REMARK    8  A    between atoms: C_28  and  C_29 
REMARK    9  A    between atoms: C_29  and  N_30 
REMARK       I    between atoms: N_30  and  C_31 
REMARK   10  A    between atoms: C_31  and  C_33 
REMARK   11  A    between atoms: C_37  and  O_41 
ROOT
HETATM    1  C   LIG     1     -10.263  14.548  66.772  1.00  0.00    -0.027 A 
HETATM    2  C   LIG     1     -10.168  15.203  65.534  1.00  0.00    -0.058 A 
HETATM    3  C   LIG     1     -11.221  15.120  64.638  1.00  0.00     0.002 A 
HETATM    4  N   LIG     1     -12.325  14.391  64.855  1.00  0.00    -0.271 NA
HETATM    5  C   LIG     1     -12.409  13.766  66.057  1.00  0.00     0.028 A 
HETATM    6  C   LIG     1     -11.454  13.863  67.073  1.00  0.00     0.060 A 
HETATM    7  H   LIG     1      -9.288  15.776  65.262  1.00  0.00     0.086 H 
HETATM    8  H   LIG     1     -11.199  15.649  63.691  1.00  0.00     0.114 H 
HETATM    9  H   LIG     1     -13.325  13.197  66.167  1.00  0.00     0.118 H 
ENDROOT
BRANCH   6  10
HETATM   10  N   LIG     1     -11.643  13.340  68.376  1.00  0.00    -0.307 N 
HETATM   11  C   LIG     1     -11.772  12.006  68.713  1.00  0.00     0.325 C 
HETATM   12  O   LIG     1     -11.855  11.102  67.894  1.00  0.00    -0.247 OA
HETATM   13  N   LIG     1     -11.803  11.841  70.092  1.00  0.00    -0.309 N 
HETATM   14  H   LIG     1     -11.520  12.633  70.647  1.00  0.00     0.170 HD
HETATM   15  H   LIG     1     -11.895  13.997  69.093  1.00  0.00     0.170 HD
BRANCH  13  16
HETATM   16  C   LIG     1     -11.936  10.611  70.776  1.00  0.00     0.036 A 
HETATM   17  C   LIG     1     -13.049  10.301  71.562  1.00  0.00    -0.057 A 
HETATM   18  C   LIG     1     -13.181   9.053  72.153  1.00  0.00    -0.080 A 
HETATM   19  H   LIG     1     -13.861  11.000  71.721  1.00  0.00     0.086 H 
HETATM   20  C   LIG     1     -12.184   8.104  71.996  1.00  0.00    -0.076 A 
HETATM   21  H   LIG     1     -14.073   8.821  72.728  1.00  0.00     0.083 H 
HETATM   22  C   LIG     1     -11.030   8.387  71.252  1.00  0.00    -0.052 A 
HETATM   23  H   LIG     1     -12.334   7.138  72.467  1.00  0.00     0.084 H 
HETATM   24  C   LIG     1     -10.918   9.654  70.641  1.00  0.00    -0.051 A 
HETATM   25  H   LIG     1     -10.030   9.882  70.055  1.00  0.00     0.087 H 
BRANCH  22  26
HETATM   26  C   LIG     1      -9.920   7.369  71.084  1.00  0.00    -0.017 C 
HETATM   27  H   LIG     1      -9.994   6.627  71.891  1.00  0.00     0.047 H 
HETATM   28  H   LIG     1      -8.954   7.873  71.216  1.00  0.00     0.047 H 
BRANCH  26  29
HETATM   29  C   LIG     1      -9.900   6.634  69.756  1.00  0.00    -0.054 A 
HETATM   30  C   LIG     1      -9.080   5.508  69.583  1.00  0.00    -0.075 A 
HETATM   31  C   LIG     1      -9.040   4.841  68.356  1.00  0.00    -0.060 A 
HETATM   32  H   LIG     1      -8.461   5.149  70.404  1.00  0.00     0.084 H 
HETATM   33  C   LIG     1      -9.816   5.315  67.293  1.00  0.00     0.074 A 
HETATM   34  H   LIG     1      -8.419   3.957  68.243  1.00  0.00     0.085 H 
HETATM   35  C   LIG     1     -10.610   6.453  67.440  1.00  0.00    -0.060 A 
HETATM   36  C   LIG     1     -10.644   7.116  68.667  1.00  0.00    -0.075 A 
HETATM   37  H   LIG     1     -11.214   6.823  66.612  1.00  0.00     0.085 H 
HETATM   38  H   LIG     1     -11.249   8.016  68.770  1.00  0.00     0.084 H 
BRANCH  33  39
HETATM   39  S   LIG     1      -9.835   4.435  65.754  1.00  0.00     0.239 S 
HETATM   40  O   LIG     1      -9.020   5.181  64.800  1.00  0.00    -0.206 OA
HETATM   41  O   LIG     1      -9.634   3.045  66.013  1.00  0.00    -0.206 OA
BRANCH  39  42
HETATM   42  N   LIG     1     -11.441   4.600  65.283  1.00  0.00    -0.225 NA
HETATM   43  H   LIG     1     -11.817   5.536  65.440  1.00  0.00     0.136 HD
HETATM   44  H   LIG     1     -11.991   3.878  65.747  1.00  0.00     0.136 HD
ENDBRANCH  39  42
ENDBRANCH  33  39
ENDBRANCH  26  29
ENDBRANCH  22  26
ENDBRANCH  13  16
ENDBRANCH   6  10
BRANCH   1  45
HETATM   45  C   LIG     1      -9.069  14.593  67.703  1.00  0.00    -0.024 C 
HETATM   46  H   LIG     1      -8.231  15.060  67.171  1.00  0.00     0.042 H 
HETATM   47  H   LIG     1      -8.742  13.569  67.926  1.00  0.00     0.042 H 
BRANCH  45  48
HETATM   48  C   LIG     1      -9.294  15.316  69.042  1.00  0.00    -0.001 C 
HETATM   49  H   LIG     1      -8.784  14.816  69.871  1.00  0.00     0.064 H 
HETATM   50  H   LIG     1     -10.367  15.298  69.273  1.00  0.00     0.064 H 
BRANCH  48  51
HETATM   51  N   LIG     1      -8.910  16.713  69.017  1.00  0.00    -0.360 N 
HETATM   52  C   LIG     1      -9.767  17.722  68.621  1.00  0.00     0.221 C 
HETATM   53  O   LIG     1     -10.907  17.504  68.223  1.00  0.00    -0.273 OA
HETATM   54  H   LIG     1      -7.995  16.952  69.371  1.00  0.00     0.162 HD
BRANCH  52  55
HETATM   55  C   LIG     1      -9.128  19.116  68.585  1.00  0.00     0.024 C 
HETATM   56  H   LIG     1      -9.326  19.520  69.587  1.00  0.00     0.054 H 
HETATM   57  C   LIG     1      -7.599  19.066  68.422  1.00  0.00    -0.051 C 
HETATM   58  C   LIG     1      -7.136  18.808  66.985  1.00  0.00    -0.040 C 
HETATM   59  H   LIG     1      -7.158  18.309  69.082  1.00  0.00     0.034 H 
HETATM   60  H   LIG     1      -7.190  20.031  68.749  1.00  0.00     0.034 H 
HETATM   61  C   LIG     1      -7.789  19.751  65.978  1.00  0.00     0.035 C 
HETATM   62  H   LIG     1      -7.348  17.770  66.707  1.00  0.00     0.036 H 
HETATM   63  H   LIG     1      -6.047  18.936  66.950  1.00  0.00     0.036 H 
HETATM   64  H   LIG     1      -7.533  19.449  64.958  1.00  0.00     0.082 H 
HETATM   65  C   LIG     1      -9.308  19.790  66.127  1.00  0.00    -0.040 C 
HETATM   66  C   LIG     1      -9.754  20.069  67.560  1.00  0.00    -0.051 C 
HETATM   67  H   LIG     1      -9.735  18.840  65.791  1.00  0.00     0.036 H 
HETATM   68  H   LIG     1      -9.720  20.580  65.485  1.00  0.00     0.036 H 
HETATM   69  H   LIG     1     -10.847  20.047  67.591  1.00  0.00     0.034 H 
HETATM   70  H   LIG     1      -9.474  21.095  67.831  1.00  0.00     0.034 H 
BRANCH  61  71
HETATM   71  O   LIG     1      -7.286  21.072  66.166  1.00  0.00    -0.396 OA
HETATM   72  H   LIG     1      -7.255  21.495  65.289  1.00  0.00     0.210 HD
ENDBRANCH  61  71
ENDBRANCH  52  55
ENDBRANCH  48  51
ENDBRANCH  45  48
ENDBRANCH   1  45
TORSDOF 11
ENDMDL
MODEL 6
REMARK VINA RESULT:      -7.3      3.944      5.465
REMARK  11 active torsions:
REMARK  status: ('A' for Active; 'I' for Inactive)
REMARK    1  A    between atoms: C_1  and  C_28 
REMARK    2  A    between atoms: C_6  and  N_7 
REMARK       I    between atoms: N_7  and  C_8 
REMARK       I    between atoms: C_8  and  N_10 
REMARK    3  A    between atoms: N_10  and  C_11 
REMARK    4  A    between atoms: C_15  and  C_16 
REMARK    5  A    between atoms: C_16  and  C_17 
REMARK    6  A    between atoms: C_20  and  S_21 
REMARK    7  A    between atoms: S_21  and  N_24 
REMARK    8  A    between atoms: C_28  and  C_29 
REMARK    9  A    between atoms: C_29  and  N_30 
REMARK       I    between atoms: N_30  and  C_31 
REMARK   10  A    between atoms: C_31  and  C_33 
REMARK   11  A    between atoms: C_37  and  O_41 
ROOT
HETATM    1  C   LIG     1     -12.068  12.572  69.630  1.00  0.00    -0.027 A 
HETATM    2  C   LIG     1     -12.568  11.708  70.618  1.00  0.00    -0.058 A 
HETATM    3  C   LIG     1     -13.170  12.240  71.747  1.00  0.00     0.002 A 
HETATM    4  N   LIG     1     -13.256  13.556  71.992  1.00  0.00    -0.271 NA
HETATM    5  C   LIG     1     -12.774  14.382  71.028  1.00  0.00     0.028 A 
HETATM    6  C   LIG     1     -12.239  13.957  69.809  1.00  0.00     0.060 A 
HETATM    7  H   LIG     1     -12.496  10.630  70.517  1.00  0.00     0.086 H 
HETATM    8  H   LIG     1     -13.605  11.601  72.508  1.00  0.00     0.114 H 
HETATM    9  H   LIG     1     -12.876  15.429  71.289  1.00  0.00     0.118 H 
ENDROOT
BRANCH   6  10
HETATM   10  N   LIG     1     -11.900  14.839  68.754  1.00  0.00    -0.307 N 
HETATM   11  C   LIG     1     -11.158  15.999  68.863  1.00  0.00     0.325 C 
HETATM   12  O   LIG     1     -10.791  16.475  69.928  1.00  0.00    -0.247 OA
HETATM   13  N   LIG     1     -10.897  16.544  67.612  1.00  0.00    -0.309 N 
HETATM   14  H   LIG     1     -11.073  15.950  66.817  1.00  0.00     0.170 HD
HETATM   15  H   LIG     1     -12.395  14.718  67.888  1.00  0.00     0.170 HD
BRANCH  13  16
HETATM   16  C   LIG     1     -10.173  17.731  67.360  1.00  0.00     0.036 A 
HETATM   17  C   LIG     1     -10.789  18.978  67.233  1.00  0.00    -0.057 A 
HETATM   18  C   LIG     1     -10.039  20.134  67.066  1.00  0.00    -0.080 A 
HETATM   19  H   LIG     1     -11.864  19.104  67.287  1.00  0.00     0.086 H 
HETATM   20  C   LIG     1      -8.658  20.056  66.989  1.00  0.00    -0.076 A 
HETATM   21  H   LIG     1     -10.538  21.096  67.008  1.00  0.00     0.083 H 
HETATM   22  C   LIG     1      -8.000  18.820  67.068  1.00  0.00    -0.052 A 
HETATM   23  H   LIG     1      -8.110  20.985  66.868  1.00  0.00     0.084 H 
HETATM   24  C   LIG     1      -8.775  17.657  67.256  1.00  0.00    -0.051 A 
HETATM   25  H   LIG     1      -8.274  16.693  67.326  1.00  0.00     0.087 H 
BRANCH  22  26
HETATM   26  C   LIG     1      -6.492  18.713  66.966  1.00  0.00    -0.017 C 
HETATM   27  H   LIG     1      -6.215  17.653  66.891  1.00  0.00     0.047 H 
HETATM   28  H   LIG     1      -6.046  19.083  67.899  1.00  0.00     0.047 H 
BRANCH  26  29
HETATM   29  C   LIG     1      -5.859  19.459  65.805  1.00  0.00    -0.054 A 
HETATM   30  C   LIG     1      -5.078  20.602  66.040  1.00  0.00    -0.075 A 
HETATM   31  C   LIG     1      -4.512  21.305  64.974  1.00  0.00    -0.060 A 
HETATM   32  H   LIG     1      -4.914  20.954  67.057  1.00  0.00     0.084 H 
HETATM   33  C   LIG     1      -4.741  20.868  63.666  1.00  0.00     0.074 A 
HETATM   34  H   LIG     1      -3.889  22.174  65.171  1.00  0.00     0.085 H 
HETATM   35  C   LIG     1      -5.543  19.753  63.415  1.00  0.00    -0.060 A 
HETATM   36  C   LIG     1      -6.108  19.056  64.483  1.00  0.00    -0.075 A 
HETATM   37  H   LIG     1      -5.722  19.413  62.396  1.00  0.00     0.085 H 
HETATM   38  H   LIG     1      -6.750  18.200  64.282  1.00  0.00     0.084 H 
BRANCH  33  39
HETATM   39  S   LIG     1      -3.967  21.704  62.307  1.00  0.00     0.239 S 
HETATM   40  O   LIG     1      -3.768  23.098  62.691  1.00  0.00    -0.206 OA
HETATM   41  O   LIG     1      -2.908  20.887  61.804  1.00  0.00    -0.206 OA
BRANCH  39  42
HETATM   42  N   LIG     1      -5.181  21.669  61.144  1.00  0.00    -0.225 NA
HETATM   43  H   LIG     1      -6.100  21.925  61.509  1.00  0.00     0.136 HD
HETATM   44  H   LIG     1      -5.183  20.751  60.702  1.00  0.00     0.136 HD
ENDBRANCH  39  42
ENDBRANCH  33  39
ENDBRANCH  26  29
ENDBRANCH  22  26
ENDBRANCH  13  16
ENDBRANCH   6  10
BRANCH   1  45
HETATM   45  C   LIG     1     -11.350  11.966  68.442  1.00  0.00    -0.024 C 
HETATM   46  H   LIG     1     -11.393  12.679  67.610  1.00  0.00     0.042 H 
HETATM   47  H   LIG     1     -11.899  11.079  68.099  1.00  0.00     0.042 H 
BRANCH  45  48
HETATM   48  C   LIG     1      -9.890  11.549  68.687  1.00  0.00    -0.001 C 
HETATM   49  H   LIG     1      -9.257  12.399  68.957  1.00  0.00     0.064 H 
HETATM   50  H   LIG     1      -9.484  11.135  67.755  1.00  0.00     0.064 H 
BRANCH  48  51
HETATM   51  N   LIG     1      -9.746  10.509  69.686  1.00  0.00    -0.360 N 
HETATM   52  C   LIG     1      -9.945   9.169  69.412  1.00  0.00     0.221 C 
HETATM   53  O   LIG     1     -10.299   8.765  68.309  1.00  0.00    -0.273 OA
HETATM   54  H   LIG     1      -9.419  10.783  70.601  1.00  0.00     0.162 HD
BRANCH  52  55
HETATM   55  C   LIG     1      -9.828   8.251  70.635  1.00  0.00     0.024 C 
HETATM   56  H   LIG     1      -8.776   8.349  70.936  1.00  0.00     0.054 H 
HETATM   57  C   LIG     1     -10.676   8.731  71.825  1.00  0.00    -0.051 C 
HETATM   58  C   LIG     1     -12.164   8.392  71.704  1.00  0.00    -0.040 C 
HETATM   59  H   LIG     1     -10.566   9.812  71.975  1.00  0.00     0.034 H 
HETATM   60  H   LIG     1     -10.287   8.256  72.735  1.00  0.00     0.034 H 
HETATM   61  C   LIG     1     -12.408   6.920  71.383  1.00  0.00     0.035 C 
HETATM   62  H   LIG     1     -12.626   9.016  70.931  1.00  0.00     0.036 H 
HETATM   63  H   LIG     1     -12.650   8.643  72.655  1.00  0.00     0.036 H 
HETATM   64  H   LIG     1     -13.469   6.749  71.177  1.00  0.00     0.082 H 
HETATM   65  C   LIG     1     -11.580   6.444  70.193  1.00  0.00    -0.040 C 
HETATM   66  C   LIG     1     -10.096   6.770  70.338  1.00  0.00    -0.051 C 
HETATM   67  H   LIG     1     -11.964   6.896  69.274  1.00  0.00     0.036 H 
HETATM   68  H   LIG     1     -11.678   5.356  70.088  1.00  0.00     0.036 H 
HETATM   69  H   LIG     1      -9.579   6.431  69.435  1.00  0.00     0.034 H 
HETATM   70  H   LIG     1      -9.675   6.174  71.158  1.00  0.00     0.034 H 
BRANCH  61  71
HETATM   71  O   LIG     1     -12.065   6.122  72.515  1.00  0.00    -0.396 OA
HETATM   72  H   LIG     1     -12.768   5.456  72.621  1.00  0.00     0.210 HD
ENDBRANCH  61  71
ENDBRANCH  52  55
ENDBRANCH  48  51
ENDBRANCH  45  48
ENDBRANCH   1  45
TORSDOF 11
ENDMDL
MODEL 7
REMARK VINA RESULT:      -7.2      2.465      4.227
REMARK  11 active torsions:
REMARK  status: ('A' for Active; 'I' for Inactive)
REMARK    1  A    between atoms: C_1  and  C_28 
REMARK    2  A    between atoms: C_6  and  N_7 
REMARK       I    between atoms: N_7  and  C_8 
REMARK       I    between atoms: C_8  and  N_10 
REMARK    3  A    between atoms: N_10  and  C_11 
REMARK    4  A    between atoms: C_15  and  C_16 
REMARK    5  A    between atoms: C_16  and  C_17 
REMARK    6  A    between atoms: C_20  and  S_21 
REMARK    7  A    between atoms: S_21  and  N_24 
REMARK    8  A    between atoms: C_28  and  C_29 
REMARK    9  A    between atoms: C_29  and  N_30 
REMARK       I    between atoms: N_30  and  C_31 
REMARK   10  A    between atoms: C_31  and  C_33 
REMARK   11  A    between atoms: C_37  and  O_41 
ROOT
HETATM    1  C   LIG     1     -12.296  12.759  69.831  1.00  0.00    -0.027 A 
HETATM    2  C   LIG     1     -12.728  11.936  70.884  1.00  0.00    -0.058 A 
HETATM    3  C   LIG     1     -13.201  12.515  72.050  1.00  0.00     0.002 A 
HETATM    4  N   LIG     1     -13.220  13.838  72.267  1.00  0.00    -0.271 NA
HETATM    5  C   LIG     1     -12.805  14.624  71.241  1.00  0.00     0.028 A 
HETATM    6  C   LIG     1     -12.403  14.152  69.988  1.00  0.00     0.060 A 
HETATM    7  H   LIG     1     -12.701  10.854  70.805  1.00  0.00     0.086 H 
HETATM    8  H   LIG     1     -13.583  11.909  72.865  1.00  0.00     0.114 H 
HETATM    9  H   LIG     1     -12.847  15.680  71.483  1.00  0.00     0.118 H 
ENDROOT
BRANCH   6  10
HETATM   10  N   LIG     1     -12.137  14.998  68.884  1.00  0.00    -0.307 N 
HETATM   11  C   LIG     1     -11.297  16.094  68.875  1.00  0.00     0.325 C 
HETATM   12  O   LIG     1     -10.756  16.546  69.875  1.00  0.00    -0.247 OA
HETATM   13  N   LIG     1     -11.160  16.608  67.591  1.00  0.00    -0.309 N 
HETATM   14  H   LIG     1     -11.487  16.026  66.836  1.00  0.00     0.170 HD
HETATM   15  H   LIG     1     -12.750  14.912  68.092  1.00  0.00     0.170 HD
BRANCH  13  16
HETATM   16  C   LIG     1     -10.383  17.732  67.227  1.00  0.00     0.036 A 
HETATM   17  C   LIG     1     -10.849  19.043  67.350  1.00  0.00    -0.057 A 
HETATM   18  C   LIG     1     -10.029  20.124  67.057  1.00  0.00    -0.080 A 
HETATM   19  H   LIG     1     -11.848  19.275  67.700  1.00  0.00     0.086 H 
HETATM   20  C   LIG     1      -8.738  19.909  66.604  1.00  0.00    -0.076 A 
HETATM   21  H   LIG     1     -10.400  21.135  67.197  1.00  0.00     0.083 H 
HETATM   22  C   LIG     1      -8.244  18.609  66.425  1.00  0.00    -0.052 A 
HETATM   23  H   LIG     1      -8.128  20.782  66.397  1.00  0.00     0.084 H 
HETATM   24  C   LIG     1      -9.083  17.521  66.743  1.00  0.00    -0.051 A 
HETATM   25  H   LIG     1      -8.707  16.508  66.615  1.00  0.00     0.087 H 
BRANCH  22  26
HETATM   26  C   LIG     1      -6.841  18.354  65.912  1.00  0.00    -0.017 C 
HETATM   27  H   LIG     1      -6.728  18.836  64.932  1.00  0.00     0.047 H 
HETATM   28  H   LIG     1      -6.715  17.276  65.742  1.00  0.00     0.047 H 
BRANCH  26  29
HETATM   29  C   LIG     1      -5.716  18.831  66.814  1.00  0.00    -0.054 A 
HETATM   30  C   LIG     1      -5.034  20.023  66.524  1.00  0.00    -0.075 A 
HETATM   31  C   LIG     1      -3.985  20.455  67.338  1.00  0.00    -0.060 A 
HETATM   32  H   LIG     1      -5.315  20.618  65.657  1.00  0.00     0.084 H 
HETATM   33  C   LIG     1      -3.607  19.680  68.439  1.00  0.00     0.074 A 
HETATM   34  H   LIG     1      -3.481  21.392  67.116  1.00  0.00     0.085 H 
HETATM   35  C   LIG     1      -4.254  18.476  68.720  1.00  0.00    -0.060 A 
HETATM   36  C   LIG     1      -5.300  18.048  67.903  1.00  0.00    -0.075 A 
HETATM   37  H   LIG     1      -3.959  17.871  69.578  1.00  0.00     0.085 H 
HETATM   38  H   LIG     1      -5.787  17.097  68.114  1.00  0.00     0.084 H 
BRANCH  33  39
HETATM   39  S   LIG     1      -2.328  20.253  69.525  1.00  0.00     0.239 S 
HETATM   40  O   LIG     1      -1.049  19.785  69.000  1.00  0.00    -0.206 OA
HETATM   41  O   LIG     1      -2.571  21.624  69.844  1.00  0.00    -0.206 OA
BRANCH  39  42
HETATM   42  N   LIG     1      -2.648  19.379  70.926  1.00  0.00    -0.225 NA
HETATM   43  H   LIG     1      -3.618  19.450  71.237  1.00  0.00     0.136 HD
HETATM   44  H   LIG     1      -1.988  19.667  71.647  1.00  0.00     0.136 HD
ENDBRANCH  39  42
ENDBRANCH  33  39
ENDBRANCH  26  29
ENDBRANCH  22  26
ENDBRANCH  13  16
ENDBRANCH   6  10
BRANCH   1  45
HETATM   45  C   LIG     1     -11.714  12.101  68.597  1.00  0.00    -0.024 C 
HETATM   46  H   LIG     1     -11.850  12.778  67.745  1.00  0.00     0.042 H 
HETATM   47  H   LIG     1     -12.297  11.203  68.355  1.00  0.00     0.042 H 
BRANCH  45  48
HETATM   48  C   LIG     1     -10.235  11.688  68.694  1.00  0.00    -0.001 C 
HETATM   49  H   LIG     1      -9.584  12.538  68.918  1.00  0.00     0.064 H 
HETATM   50  H   LIG     1      -9.918  11.293  67.721  1.00  0.00     0.064 H 
BRANCH  48  51
HETATM   51  N   LIG     1      -9.993  10.632  69.657  1.00  0.00    -0.360 N 
HETATM   52  C   LIG     1     -10.100   9.290  69.345  1.00  0.00     0.221 C 
HETATM   53  O   LIG     1     -10.449   8.894  68.238  1.00  0.00    -0.273 OA
HETATM   54  H   LIG     1      -9.665  10.903  70.573  1.00  0.00     0.162 HD
BRANCH  52  55
HETATM   55  C   LIG     1      -9.888   8.347  70.536  1.00  0.00     0.024 C 
HETATM   56  H   LIG     1      -8.814   8.436  70.752  1.00  0.00     0.054 H 
HETATM   57  C   LIG     1     -10.632   8.807  71.802  1.00  0.00    -0.051 C 
HETATM   58  C   LIG     1     -12.127   8.475  71.796  1.00  0.00    -0.040 C 
HETATM   59  H   LIG     1     -10.505   9.884  71.963  1.00  0.00     0.034 H 
HETATM   60  H   LIG     1     -10.172   8.312  72.667  1.00  0.00     0.034 H 
HETATM   61  C   LIG     1     -12.404   7.011  71.468  1.00  0.00     0.035 C 
HETATM   62  H   LIG     1     -12.648   9.117  71.077  1.00  0.00     0.036 H 
HETATM   63  H   LIG     1     -12.531   8.709  72.789  1.00  0.00     0.036 H 
HETATM   64  H   LIG     1     -13.480   6.848  71.347  1.00  0.00     0.082 H 
HETATM   65  C   LIG     1     -11.679   6.556  70.205  1.00  0.00    -0.040 C 
HETATM   66  C   LIG     1     -10.187   6.874  70.233  1.00  0.00    -0.051 C 
HETATM   67  H   LIG     1     -12.136   7.028  69.329  1.00  0.00     0.036 H 
HETATM   68  H   LIG     1     -11.791   5.470  70.087  1.00  0.00     0.036 H 
HETATM   69  H   LIG     1      -9.748   6.551  69.285  1.00  0.00     0.034 H 
HETATM   70  H   LIG     1      -9.703   6.260  71.004  1.00  0.00     0.034 H 
BRANCH  61  71
HETATM   71  O   LIG     1     -11.973   6.189  72.552  1.00  0.00    -0.396 OA
HETATM   72  H   LIG     1     -12.770   5.785  72.940  1.00  0.00     0.210 HD
ENDBRANCH  61  71
ENDBRANCH  52  55
ENDBRANCH  48  51
ENDBRANCH  45  48
ENDBRANCH   1  45
TORSDOF 11
ENDMDL
MODEL 8
REMARK VINA RESULT:      -7.1      6.070     10.763
REMARK  11 active torsions:
REMARK  status: ('A' for Active; 'I' for Inactive)
REMARK    1  A    between atoms: C_1  and  C_28 
REMARK    2  A    between atoms: C_6  and  N_7 
REMARK       I    between atoms: N_7  and  C_8 
REMARK       I    between atoms: C_8  and  N_10 
REMARK    3  A    between atoms: N_10  and  C_11 
REMARK    4  A    between atoms: C_15  and  C_16 
REMARK    5  A    between atoms: C_16  and  C_17 
REMARK    6  A    between atoms: C_20  and  S_21 
REMARK    7  A    between atoms: S_21  and  N_24 
REMARK    8  A    between atoms: C_28  and  C_29 
REMARK    9  A    between atoms: C_29  and  N_30 
REMARK       I    between atoms: N_30  and  C_31 
REMARK   10  A    between atoms: C_31  and  C_33 
REMARK   11  A    between atoms: C_37  and  O_41 
ROOT
HETATM    1  C   LIG     1     -10.164  13.983  67.080  1.00  0.00    -0.027 A 
HETATM    2  C   LIG     1      -9.849  14.661  65.891  1.00  0.00    -0.058 A 
HETATM    3  C   LIG     1     -10.832  14.846  64.933  1.00  0.00     0.002 A 
HETATM    4  N   LIG     1     -12.077  14.360  65.043  1.00  0.00    -0.271 NA
HETATM    5  C   LIG     1     -12.371  13.711  66.198  1.00  0.00     0.028 A 
HETATM    6  C   LIG     1     -11.490  13.554  67.271  1.00  0.00     0.060 A 
HETATM    7  H   LIG     1      -8.851  15.045  65.705  1.00  0.00     0.086 H 
HETATM    8  H   LIG     1     -10.634  15.402  64.022  1.00  0.00     0.114 H 
HETATM    9  H   LIG     1     -13.392  13.346  66.221  1.00  0.00     0.118 H 
ENDROOT
BRANCH   6  10
HETATM   10  N   LIG     1     -11.873  13.023  68.527  1.00  0.00    -0.307 N 
HETATM   11  C   LIG     1     -11.866  11.690  68.889  1.00  0.00     0.325 C 
HETATM   12  O   LIG     1     -11.630  10.775  68.114  1.00  0.00    -0.247 OA
HETATM   13  N   LIG     1     -12.168  11.538  70.237  1.00  0.00    -0.309 N 
HETATM   14  H   LIG     1     -12.136  12.372  70.802  1.00  0.00     0.170 HD
HETATM   15  H   LIG     1     -12.371  13.640  69.144  1.00  0.00     0.170 HD
BRANCH  13  16
HETATM   16  C   LIG     1     -12.255  10.311  70.933  1.00  0.00     0.036 A 
HETATM   17  C   LIG     1     -13.475   9.725  71.279  1.00  0.00    -0.057 A 
HETATM   18  C   LIG     1     -13.522   8.480  71.892  1.00  0.00    -0.080 A 
HETATM   19  H   LIG     1     -14.427  10.194  71.063  1.00  0.00     0.086 H 
HETATM   20  C   LIG     1     -12.346   7.816  72.199  1.00  0.00    -0.076 A 
HETATM   21  H   LIG     1     -14.483   8.027  72.116  1.00  0.00     0.083 H 
HETATM   22  C   LIG     1     -11.099   8.387  71.909  1.00  0.00    -0.052 A 
HETATM   23  H   LIG     1     -12.431   6.841  72.668  1.00  0.00     0.084 H 
HETATM   24  C   LIG     1     -11.067   9.644  71.271  1.00  0.00    -0.051 A 
HETATM   25  H   LIG     1     -10.104  10.093  71.034  1.00  0.00     0.087 H 
BRANCH  22  26
HETATM   26  C   LIG     1      -9.802   7.684  72.256  1.00  0.00    -0.017 C 
HETATM   27  H   LIG     1      -9.567   7.872  73.312  1.00  0.00     0.047 H 
HETATM   28  H   LIG     1      -8.988   8.135  71.673  1.00  0.00     0.047 H 
BRANCH  26  29
HETATM   29  C   LIG     1      -9.786   6.184  72.019  1.00  0.00    -0.054 A 
HETATM   30  C   LIG     1      -9.733   5.298  73.107  1.00  0.00    -0.075 A 
HETATM   31  C   LIG     1      -9.695   3.918  72.895  1.00  0.00    -0.060 A 
HETATM   32  H   LIG     1      -9.713   5.681  74.126  1.00  0.00     0.084 H 
HETATM   33  C   LIG     1      -9.696   3.425  71.587  1.00  0.00     0.074 A 
HETATM   34  H   LIG     1      -9.678   3.242  73.746  1.00  0.00     0.085 H 
HETATM   35  C   LIG     1      -9.715   4.295  70.495  1.00  0.00    -0.060 A 
HETATM   36  C   LIG     1      -9.750   5.672  70.712  1.00  0.00    -0.075 A 
HETATM   37  H   LIG     1      -9.715   3.911  69.476  1.00  0.00     0.085 H 
HETATM   38  H   LIG     1      -9.743   6.348  69.858  1.00  0.00     0.084 H 
BRANCH  33  39
HETATM   39  S   LIG     1      -9.726   1.675  71.302  1.00  0.00     0.239 S 
HETATM   40  O   LIG     1     -10.849   1.116  72.049  1.00  0.00    -0.206 OA
HETATM   41  O   LIG     1      -9.533   1.429  69.908  1.00  0.00    -0.206 OA
BRANCH  39  42
HETATM   42  N   LIG     1      -8.314   1.177  72.068  1.00  0.00    -0.225 NA
HETATM   43  H   LIG     1      -7.784   0.487  71.534  1.00  0.00     0.136 HD
HETATM   44  H   LIG     1      -8.549   0.846  73.003  1.00  0.00     0.136 HD
ENDBRANCH  39  42
ENDBRANCH  33  39
ENDBRANCH  26  29
ENDBRANCH  22  26
ENDBRANCH  13  16
ENDBRANCH   6  10
BRANCH   1  45
HETATM   45  C   LIG     1      -9.053  13.729  68.078  1.00  0.00    -0.024 C 
HETATM   46  H   LIG     1      -9.489  13.705  69.084  1.00  0.00     0.042 H 
HETATM   47  H   LIG     1      -8.362  14.582  68.077  1.00  0.00     0.042 H 
BRANCH  45  48
HETATM   48  C   LIG     1      -8.226  12.453  67.846  1.00  0.00    -0.001 C 
HETATM   49  H   LIG     1      -7.951  11.963  68.784  1.00  0.00     0.064 H 
HETATM   50  H   LIG     1      -7.289  12.731  67.347  1.00  0.00     0.064 H 
BRANCH  48  51
HETATM   51  N   LIG     1      -8.877  11.493  66.977  1.00  0.00    -0.360 N 
HETATM   52  C   LIG     1      -8.184  10.684  66.096  1.00  0.00     0.221 C 
HETATM   53  O   LIG     1      -6.967  10.748  65.957  1.00  0.00    -0.273 OA
HETATM   54  H   LIG     1      -9.874  11.372  67.079  1.00  0.00     0.162 HD
BRANCH  52  55
HETATM   55  C   LIG     1      -9.076   9.806  65.210  1.00  0.00     0.024 C 
HETATM   56  H   LIG     1      -9.451   9.035  65.898  1.00  0.00     0.054 H 
HETATM   57  C   LIG     1     -10.308  10.557  64.675  1.00  0.00    -0.051 C 
HETATM   58  C   LIG     1     -10.008  11.469  63.482  1.00  0.00    -0.040 C 
HETATM   59  H   LIG     1     -10.783  11.148  65.467  1.00  0.00     0.034 H 
HETATM   60  H   LIG     1     -11.051   9.812  64.362  1.00  0.00     0.034 H 
HETATM   61  C   LIG     1      -9.245  10.753  62.371  1.00  0.00     0.035 C 
HETATM   62  H   LIG     1      -9.436  12.342  63.815  1.00  0.00     0.036 H 
HETATM   63  H   LIG     1     -10.963  11.839  63.088  1.00  0.00     0.036 H 
HETATM   64  H   LIG     1      -8.939  11.469  61.602  1.00  0.00     0.082 H 
HETATM   65  C   LIG     1      -8.014  10.020  62.896  1.00  0.00    -0.040 C 
HETATM   66  C   LIG     1      -8.332   9.099  64.071  1.00  0.00    -0.051 C 
HETATM   67  H   LIG     1      -7.254  10.748  63.199  1.00  0.00     0.036 H 
HETATM   68  H   LIG     1      -7.580   9.408  62.096  1.00  0.00     0.036 H 
HETATM   69  H   LIG     1      -7.399   8.640  64.411  1.00  0.00     0.034 H 
HETATM   70  H   LIG     1      -8.955   8.268  63.718  1.00  0.00     0.034 H 
BRANCH  61  71
HETATM   71  O   LIG     1     -10.100   9.799  61.743  1.00  0.00    -0.396 OA
HETATM   72  H   LIG     1     -10.985   9.905  62.136  1.00  0.00     0.210 HD
ENDBRANCH  61  71
ENDBRANCH  52  55
ENDBRANCH  48  51
ENDBRANCH  45  48
ENDBRANCH   1  45
TORSDOF 11
ENDMDL
MODEL 9
REMARK VINA RESULT:      -6.6      6.427     11.328
REMARK  11 active torsions:
REMARK  status: ('A' for Active; 'I' for Inactive)
REMARK    1  A    between atoms: C_1  and  C_28 
REMARK    2  A    between atoms: C_6  and  N_7 
REMARK       I    between atoms: N_7  and  C_8 
REMARK       I    between atoms: C_8  and  N_10 
REMARK    3  A    between atoms: N_10  and  C_11 
REMARK    4  A    between atoms: C_15  and  C_16 
REMARK    5  A    between atoms: C_16  and  C_17 
REMARK    6  A    between atoms: C_20  and  S_21 
REMARK    7  A    between atoms: S_21  and  N_24 
REMARK    8  A    between atoms: C_28  and  C_29 
REMARK    9  A    between atoms: C_29  and  N_30 
REMARK       I    between atoms: N_30  and  C_31 
REMARK   10  A    between atoms: C_31  and  C_33 
REMARK   11  A    between atoms: C_37  and  O_41 
ROOT
HETATM    1  C   LIG     1     -10.044  13.880  66.928  1.00  0.00    -0.027 A 
HETATM    2  C   LIG     1      -9.803  14.547  65.715  1.00  0.00    -0.058 A 
HETATM    3  C   LIG     1     -10.872  14.897  64.907  1.00  0.00     0.002 A 
HETATM    4  N   LIG     1     -12.146  14.583  65.184  1.00  0.00    -0.271 NA
HETATM    5  C   LIG     1     -12.368  13.943  66.360  1.00  0.00     0.028 A 
HETATM    6  C   LIG     1     -11.379  13.632  67.297  1.00  0.00     0.060 A 
HETATM    7  H   LIG     1      -8.797  14.796  65.396  1.00  0.00     0.086 H 
HETATM    8  H   LIG     1     -10.725  15.450  63.985  1.00  0.00     0.114 H 
HETATM    9  H   LIG     1     -13.417  13.721  66.521  1.00  0.00     0.118 H 
ENDROOT
BRANCH   6  10
HETATM   10  N   LIG     1     -11.657  13.118  68.586  1.00  0.00    -0.307 N 
HETATM   11  C   LIG     1     -11.828  11.788  68.919  1.00  0.00     0.325 C 
HETATM   12  O   LIG     1     -11.872  10.881  68.100  1.00  0.00    -0.247 OA
HETATM   13  N   LIG     1     -11.947  11.629  70.294  1.00  0.00    -0.309 N 
HETATM   14  H   LIG     1     -11.688  12.420  70.863  1.00  0.00     0.170 HD
HETATM   15  H   LIG     1     -11.943  13.782  69.284  1.00  0.00     0.170 HD
BRANCH  13  16
HETATM   16  C   LIG     1     -12.142  10.405  70.973  1.00  0.00     0.036 A 
HETATM   17  C   LIG     1     -13.410   9.902  71.274  1.00  0.00    -0.057 A 
HETATM   18  C   LIG     1     -13.563   8.658  71.871  1.00  0.00    -0.080 A 
HETATM   19  H   LIG     1     -14.320  10.439  71.035  1.00  0.00     0.086 H 
HETATM   20  C   LIG     1     -12.447   7.910  72.207  1.00  0.00    -0.076 A 
HETATM   21  H   LIG     1     -14.560   8.271  72.060  1.00  0.00     0.083 H 
HETATM   22  C   LIG     1     -11.154   8.395  71.962  1.00  0.00    -0.052 A 
HETATM   23  H   LIG     1     -12.613   6.940  72.662  1.00  0.00     0.084 H 
HETATM   24  C   LIG     1     -11.014   9.653  71.339  1.00  0.00    -0.051 A 
HETATM   25  H   LIG     1     -10.016  10.036  71.138  1.00  0.00     0.087 H 
BRANCH  22  26
HETATM   26  C   LIG     1      -9.921   7.600  72.340  1.00  0.00    -0.017 C 
HETATM   27  H   LIG     1      -9.508   8.006  73.273  1.00  0.00     0.047 H 
HETATM   28  H   LIG     1      -9.152   7.751  71.571  1.00  0.00     0.047 H 
BRANCH  26  29
HETATM   29  C   LIG     1     -10.133   6.107  72.519  1.00  0.00    -0.054 A 
HETATM   30  C   LIG     1     -10.447   5.584  73.783  1.00  0.00    -0.075 A 
HETATM   31  C   LIG     1     -10.620   4.209  73.958  1.00  0.00    -0.060 A 
HETATM   32  H   LIG     1     -10.550   6.247  74.640  1.00  0.00     0.084 H 
HETATM   33  C   LIG     1     -10.465   3.354  72.863  1.00  0.00     0.074 A 
HETATM   34  H   LIG     1     -10.887   3.820  74.937  1.00  0.00     0.085 H 
HETATM   35  C   LIG     1     -10.120   3.856  71.607  1.00  0.00    -0.060 A 
HETATM   36  C   LIG     1      -9.945   5.229  71.439  1.00  0.00    -0.075 A 
HETATM   37  H   LIG     1      -9.998   3.190  70.754  1.00  0.00     0.085 H 
HETATM   38  H   LIG     1      -9.655   5.615  70.462  1.00  0.00     0.084 H 
BRANCH  33  39
HETATM   39  S   LIG     1     -10.757   1.615  73.052  1.00  0.00     0.239 S 
HETATM   40  O   LIG     1     -12.089   1.442  73.624  1.00  0.00    -0.206 OA
HETATM   41  O   LIG     1     -10.340   0.944  71.862  1.00  0.00    -0.206 OA
BRANCH  39  42
HETATM   42  N   LIG     1      -9.641   1.205  74.241  1.00  0.00    -0.225 NA
HETATM   43  H   LIG     1      -9.151   0.329  74.053  1.00  0.00     0.136 HD
HETATM   44  H   LIG     1     -10.114   1.199  75.144  1.00  0.00     0.136 HD
ENDBRANCH  39  42
ENDBRANCH  33  39
ENDBRANCH  26  29
ENDBRANCH  22  26
ENDBRANCH  13  16
ENDBRANCH   6  10
BRANCH   1  45
HETATM   45  C   LIG     1      -8.854  13.444  67.757  1.00  0.00    -0.024 C 
HETATM   46  H   LIG     1      -9.210  13.164  68.755  1.00  0.00     0.042 H 
HETATM   47  H   LIG     1      -8.185  14.300  67.912  1.00  0.00     0.042 H 
BRANCH  45  48
HETATM   48  C   LIG     1      -8.017  12.295  67.169  1.00  0.00    -0.001 C 
HETATM   49  H   LIG     1      -7.096  12.124  67.734  1.00  0.00     0.064 H 
HETATM   50  H   LIG     1      -7.717  12.568  66.149  1.00  0.00     0.064 H 
BRANCH  48  51
HETATM   51  N   LIG     1      -8.747  11.048  67.055  1.00  0.00    -0.360 N 
HETATM   52  C   LIG     1      -8.692  10.054  68.014  1.00  0.00     0.221 C 
HETATM   53  O   LIG     1      -7.988  10.138  69.015  1.00  0.00    -0.273 OA
HETATM   54  H   LIG     1      -9.372  10.943  66.270  1.00  0.00     0.162 HD
BRANCH  52  55
HETATM   55  C   LIG     1      -9.470   8.783  67.651  1.00  0.00     0.024 C 
HETATM   56  H   LIG     1     -10.519   9.111  67.646  1.00  0.00     0.054 H 
HETATM   57  C   LIG     1      -9.159   8.278  66.231  1.00  0.00    -0.051 C 
HETATM   58  C   LIG     1      -7.838   7.510  66.122  1.00  0.00    -0.040 C 
HETATM   59  H   LIG     1      -9.152   9.107  65.513  1.00  0.00     0.034 H 
HETATM   60  H   LIG     1      -9.973   7.611  65.920  1.00  0.00     0.034 H 
HETATM   61  C   LIG     1      -7.714   6.402  67.165  1.00  0.00     0.035 C 
HETATM   62  H   LIG     1      -6.996   8.203  66.221  1.00  0.00     0.036 H 
HETATM   63  H   LIG     1      -7.781   7.073  65.118  1.00  0.00     0.036 H 
HETATM   64  H   LIG     1      -6.710   5.968  67.136  1.00  0.00     0.082 H 
HETATM   65  C   LIG     1      -8.008   6.903  68.576  1.00  0.00    -0.040 C 
HETATM   66  C   LIG     1      -9.336   7.649  68.674  1.00  0.00    -0.051 C 
HETATM   67  H   LIG     1      -7.197   7.559  68.909  1.00  0.00     0.036 H 
HETATM   68  H   LIG     1      -8.046   6.053  69.268  1.00  0.00     0.036 H 
HETATM   69  H   LIG     1      -9.457   8.004  69.702  1.00  0.00     0.034 H 
HETATM   70  H   LIG     1     -10.159   6.941  68.511  1.00  0.00     0.034 H 
BRANCH  61  71
HETATM   71  O   LIG     1      -8.635   5.356  66.861  1.00  0.00    -0.396 OA
HETATM   72  H   LIG     1      -9.056   5.582  66.012  1.00  0.00     0.210 HD
ENDBRANCH  61  71
ENDBRANCH  52  55
ENDBRANCH  48  51
ENDBRANCH  45  48
ENDBRANCH   1  45
TORSDOF 11
ENDMDL
MODEL 10
REMARK VINA RESULT:      -6.0      6.379      9.657
REMARK  11 active torsions:
REMARK  status: ('A' for Active; 'I' for Inactive)
REMARK    1  A    between atoms: C_1  and  C_28 
REMARK    2  A    between atoms: C_6  and  N_7 
REMARK       I    between atoms: N_7  and  C_8 
REMARK       I    between atoms: C_8  and  N_10 
REMARK    3  A    between atoms: N_10  and  C_11 
REMARK    4  A    between atoms: C_15  and  C_16 
REMARK    5  A    between atoms: C_16  and  C_17 
REMARK    6  A    between atoms: C_20  and  S_21 
REMARK    7  A    between atoms: S_21  and  N_24 
REMARK    8  A    between atoms: C_28  and  C_29 
REMARK    9  A    between atoms: C_29  and  N_30 
REMARK       I    between atoms: N_30  and  C_31 
REMARK   10  A    between atoms: C_31  and  C_33 
REMARK   11  A    between atoms: C_37  and  O_41 
ROOT
HETATM    1  C   LIG     1      -9.959  12.123  66.893  1.00  0.00    -0.027 A 
HETATM    2  C   LIG     1     -10.501  13.069  67.779  1.00  0.00    -0.058 A 
HETATM    3  C   LIG     1     -11.747  13.613  67.514  1.00  0.00     0.002 A 
HETATM    4  N   LIG     1     -12.460  13.334  66.413  1.00  0.00    -0.271 NA
HETATM    5  C   LIG     1     -11.929  12.415  65.567  1.00  0.00     0.028 A 
HETATM    6  C   LIG     1     -10.731  11.730  65.785  1.00  0.00     0.060 A 
HETATM    7  H   LIG     1      -9.966  13.383  68.669  1.00  0.00     0.086 H 
HETATM    8  H   LIG     1     -12.214  14.314  68.198  1.00  0.00     0.114 H 
HETATM    9  H   LIG     1     -12.556  12.237  64.700  1.00  0.00     0.118 H 
ENDROOT
BRANCH   6  10
HETATM   10  N   LIG     1     -10.284  10.658  64.974  1.00  0.00    -0.307 N 
HETATM   11  C   LIG     1      -9.801  10.753  63.683  1.00  0.00     0.325 C 
HETATM   12  O   LIG     1      -9.807  11.786  63.028  1.00  0.00    -0.247 OA
HETATM   13  N   LIG     1      -9.322   9.527  63.239  1.00  0.00    -0.309 N 
HETATM   14  H   LIG     1      -9.185   8.816  63.939  1.00  0.00     0.170 HD
HETATM   15  H   LIG     1     -10.512   9.731  65.287  1.00  0.00     0.170 HD
BRANCH  13  16
HETATM   16  C   LIG     1      -8.768   9.267  61.964  1.00  0.00     0.036 A 
HETATM   17  C   LIG     1      -9.494   8.661  60.936  1.00  0.00    -0.057 A 
HETATM   18  C   LIG     1      -8.942   8.494  59.673  1.00  0.00    -0.080 A 
HETATM   19  H   LIG     1     -10.515   8.323  61.065  1.00  0.00     0.086 H 
HETATM   20  C   LIG     1      -7.640   8.902  59.428  1.00  0.00    -0.076 A 
HETATM   21  H   LIG     1      -9.538   8.055  58.878  1.00  0.00     0.083 H 
HETATM   22  C   LIG     1      -6.862   9.475  60.443  1.00  0.00    -0.052 A 
HETATM   23  H   LIG     1      -7.253   8.761  58.425  1.00  0.00     0.084 H 
HETATM   24  C   LIG     1      -7.442   9.654  61.716  1.00  0.00    -0.051 A 
HETATM   25  H   LIG     1      -6.849  10.105  62.509  1.00  0.00     0.087 H 
BRANCH  22  26
HETATM   26  C   LIG     1      -5.430   9.909  60.199  1.00  0.00    -0.017 C 
HETATM   27  H   LIG     1      -4.964   9.215  59.488  1.00  0.00     0.047 H 
HETATM   28  H   LIG     1      -4.867   9.815  61.137  1.00  0.00     0.047 H 
BRANCH  26  29
HETATM   29  C   LIG     1      -5.255  11.324  59.675  1.00  0.00    -0.054 A 
HETATM   30  C   LIG     1      -4.937  11.543  58.325  1.00  0.00    -0.075 A 
HETATM   31  C   LIG     1      -4.752  12.840  57.843  1.00  0.00    -0.060 A 
HETATM   32  H   LIG     1      -4.824  10.701  57.645  1.00  0.00     0.084 H 
HETATM   33  C   LIG     1      -4.873  13.922  58.721  1.00  0.00     0.074 A 
HETATM   34  H   LIG     1      -4.530  12.998  56.791  1.00  0.00     0.085 H 
HETATM   35  C   LIG     1      -5.156  13.718  60.072  1.00  0.00    -0.060 A 
HETATM   36  C   LIG     1      -5.337  12.420  60.549  1.00  0.00    -0.075 A 
HETATM   37  H   LIG     1      -5.249  14.560  60.757  1.00  0.00     0.085 H 
HETATM   38  H   LIG     1      -5.536  12.263  61.608  1.00  0.00     0.084 H 
BRANCH  33  39
HETATM   39  S   LIG     1      -4.717  15.579  58.108  1.00  0.00     0.239 S 
HETATM   40  O   LIG     1      -6.005  16.243  58.274  1.00  0.00    -0.206 OA
HETATM   41  O   LIG     1      -3.496  16.139  58.595  1.00  0.00    -0.206 OA
BRANCH  39  42
HETATM   42  N   LIG     1      -4.492  15.318  56.462  1.00  0.00    -0.225 NA
HETATM   43  H   LIG     1      -3.768  15.910  56.051  1.00  0.00     0.136 HD
HETATM   44  H   LIG     1      -5.390  15.421  55.990  1.00  0.00     0.136 HD
ENDBRANCH  39  42
ENDBRANCH  33  39
ENDBRANCH  26  29
ENDBRANCH  22  26
ENDBRANCH  13  16
ENDBRANCH   6  10
BRANCH   1  45
HETATM   45  C   LIG     1      -8.565  11.598  67.167  1.00  0.00    -0.024 C 
HETATM   46  H   LIG     1      -8.066  12.284  67.863  1.00  0.00     0.042 H 
HETATM   47  H   LIG     1      -7.974  11.636  66.243  1.00  0.00     0.042 H 
BRANCH  45  48
HETATM   48  C   LIG     1      -8.487  10.163  67.715  1.00  0.00    -0.001 C 
HETATM   49  H   LIG     1      -7.489   9.731  67.602  1.00  0.00     0.064 H 
HETATM   50  H   LIG     1      -9.173   9.531  67.137  1.00  0.00     0.064 H 
BRANCH  48  51
HETATM   51  N   LIG     1      -8.904  10.050  69.099  1.00  0.00    -0.360 N 
HETATM   52  C   LIG     1     -10.131   9.537  69.476  1.00  0.00     0.221 C 
HETATM   53  O   LIG     1     -10.975   9.177  68.663  1.00  0.00    -0.273 OA
HETATM   54  H   LIG     1      -8.231  10.296  69.810  1.00  0.00     0.162 HD
BRANCH  52  55
HETATM   55  C   LIG     1     -10.400   9.592  70.985  1.00  0.00     0.024 C 
HETATM   56  H   LIG     1     -10.188  10.637  71.251  1.00  0.00     0.054 H 
HETATM   57  C   LIG     1     -11.876   9.337  71.337  1.00  0.00    -0.051 C 
HETATM   58  C   LIG     1     -12.273   7.858  71.312  1.00  0.00    -0.040 C 
HETATM   59  H   LIG     1     -12.541   9.897  70.669  1.00  0.00     0.034 H 
HETATM   60  H   LIG     1     -12.058   9.726  72.347  1.00  0.00     0.034 H 
HETATM   61  C   LIG     1     -11.328   6.981  72.130  1.00  0.00     0.035 C 
HETATM   62  H   LIG     1     -12.303   7.498  70.278  1.00  0.00     0.036 H 
HETATM   63  H   LIG     1     -13.290   7.771  71.714  1.00  0.00     0.036 H 
HETATM   64  H   LIG     1     -11.569   5.924  71.980  1.00  0.00     0.082 H 
HETATM   65  C   LIG     1      -9.864   7.221  71.773  1.00  0.00    -0.040 C 
HETATM   66  C   LIG     1      -9.478   8.697  71.822  1.00  0.00    -0.051 C 
HETATM   67  H   LIG     1      -9.660   6.824  70.773  1.00  0.00     0.036 H 
HETATM   68  H   LIG     1      -9.220   6.680  72.477  1.00  0.00     0.036 H 
HETATM   69  H   LIG     1      -8.430   8.789  71.521  1.00  0.00     0.034 H 
HETATM   70  H   LIG     1      -9.516   9.044  72.863  1.00  0.00     0.034 H 
BRANCH  61  71
HETATM   71  O   LIG     1     -11.501   7.260  73.518  1.00  0.00    -0.396 OA
HETATM   72  H   LIG     1     -12.242   7.888  73.595  1.00  0.00     0.210 HD
ENDBRANCH  61  71
ENDBRANCH  52  55
ENDBRANCH  48  51
ENDBRANCH  45  48
ENDBRANCH   1  45
TORSDOF 11
ENDMDL
