MODEL 1
REMARK VINA RESULT:      -8.2      0.000      0.000
REMARK  11 active torsions:
REMARK  status: ('A' for Active; 'I' for Inactive)
REMARK    1  A    between atoms: N_1  and  S_2 
REMARK    2  A    between atoms: S_2  and  C_5 
REMARK    3  A    between atoms: C_8  and  C_9 
REMARK    4  A    between atoms: C_9  and  C_10 
REMARK    5  A    between atoms: C_14  and  N_15 
REMARK       I    between atoms: N_15  and  C_16 
REMARK       I    between atoms: C_16  and  N_18 
REMARK    6  A    between atoms: N_18  and  C_19 
REMARK    7  A    between atoms: C_22  and  C_23 
REMARK    8  A    between atoms: C_23  and  C_24 
REMARK    9  A    between atoms: C_24  and  N_25 
REMARK       I    between atoms: N_25  and  C_26 
REMARK   10  A    between atoms: C_26  and  C_28 
REMARK   11  A    between atoms: C_31  and  O_32 
ROOT
HETATM    1  C   LIG     1      -9.607  17.580  66.829  1.00  0.00     0.034 A 
HETATM    2  C   LIG     1      -8.428  16.897  66.557  1.00  0.00    -0.059 A 
HETATM    3  C   LIG     1      -7.355  17.584  65.994  1.00  0.00    -0.057 A 
HETATM    4  C   LIG     1      -7.489  18.947  65.733  1.00  0.00     0.035 A 
HETATM    5  N   LIG     1      -8.629  19.625  66.010  1.00  0.00    -0.264 NA
HETATM    6  C   LIG     1      -9.663  18.935  66.536  1.00  0.00     0.023 A 
HETATM    7  H   LIG     1      -8.352  15.831  66.755  1.00  0.00     0.086 H 
HETATM    8  H   LIG     1      -6.437  17.056  65.759  1.00  0.00     0.086 H 
HETATM    9  H   LIG     1     -10.559  19.523  66.715  1.00  0.00     0.117 H 
ENDROOT
BRANCH   1  10
HETATM   10  N   LIG     1     -10.676  16.875  67.417  1.00  0.00    -0.209 NA
HETATM   11  C   LIG     1     -10.607  16.531  68.763  1.00  0.00     0.303 C 
HETATM   12  N   LIG     1     -11.724  15.808  69.132  1.00  0.00    -0.313 N 
HETATM   13  O   LIG     1      -9.678  16.880  69.493  1.00  0.00    -0.253 OA
HETATM   14  H   LIG     1     -12.480  15.797  68.460  1.00  0.00     0.170 HD
HETATM   15  H   LIG     1     -10.936  16.058  66.877  1.00  0.00     0.138 HD
BRANCH  12  16
HETATM   16  C   LIG     1     -12.050  15.360  70.432  1.00  0.00     0.036 C 
HETATM   17  C   LIG     1     -11.780  16.116  71.572  1.00  0.00    -0.057 C 
HETATM   18  C   LIG     1     -12.299  15.732  72.801  1.00  0.00    -0.080 C 
HETATM   19  H   LIG     1     -11.204  17.034  71.540  1.00  0.00     0.086 H 
HETATM   20  C   LIG     1     -13.045  14.563  72.904  1.00  0.00    -0.076 C 
HETATM   21  H   LIG     1     -12.118  16.349  73.678  1.00  0.00     0.083 H 
HETATM   22  C   LIG     1     -13.140  13.665  71.831  1.00  0.00    -0.052 C 
HETATM   23  H   LIG     1     -13.486  14.323  73.868  1.00  0.00     0.084 H 
HETATM   24  C   LIG     1     -12.696  14.116  70.573  1.00  0.00    -0.051 C 
HETATM   25  H   LIG     1     -12.863  13.493  69.697  1.00  0.00     0.087 H 
BRANCH  22  26
HETATM   26  C   LIG     1     -13.742  12.273  71.998  1.00  0.00    -0.017 C 
HETATM   27  H   LIG     1     -13.935  12.136  73.070  1.00  0.00     0.047 H 
HETATM   28  H   LIG     1     -14.712  12.240  71.484  1.00  0.00     0.047 H 
BRANCH  26  29
HETATM   29  C   LIG     1     -12.935  11.065  71.496  1.00  0.00    -0.054 A 
HETATM   30  C   LIG     1     -11.940  11.154  70.511  1.00  0.00    -0.075 A 
HETATM   31  C   LIG     1     -11.123  10.068  70.189  1.00  0.00    -0.060 A 
HETATM   32  H   LIG     1     -11.751  12.088  69.987  1.00  0.00     0.084 H 
HETATM   33  C   LIG     1     -11.371   8.827  70.769  1.00  0.00     0.074 A 
HETATM   34  H   LIG     1     -10.307  10.238  69.492  1.00  0.00     0.085 H 
HETATM   35  C   LIG     1     -12.420   8.676  71.670  1.00  0.00    -0.060 A 
HETATM   36  C   LIG     1     -13.186   9.791  72.037  1.00  0.00    -0.075 A 
HETATM   37  H   LIG     1     -12.626   7.701  72.097  1.00  0.00     0.085 H 
HETATM   38  H   LIG     1     -13.992   9.660  72.754  1.00  0.00     0.084 H 
BRANCH  33  39
HETATM   39  S   LIG     1     -10.365   7.431  70.354  1.00  0.00     0.239 S 
HETATM   40  O   LIG     1      -9.017   7.912  70.143  1.00  0.00    -0.206 OA
HETATM   41  O   LIG     1     -11.049   6.639  69.355  1.00  0.00    -0.206 OA
BRANCH  39  42
HETATM   42  N   LIG     1     -10.400   6.524  71.782  1.00  0.00    -0.225 NA
HETATM   43  H   LIG     1      -9.572   5.947  71.949  1.00  0.00     0.136 HD
HETATM   44  H   LIG     1     -11.272   5.989  71.858  1.00  0.00     0.136 HD
ENDBRANCH  39  42
ENDBRANCH  33  39
ENDBRANCH  26  29
ENDBRANCH  22  26
ENDBRANCH  12  16
ENDBRANCH   1  10
BRANCH   4  45
HETATM   45  C   LIG     1      -6.348  19.708  65.102  1.00  0.00    -0.010 C 
HETATM   46  H   LIG     1      -6.570  19.853  64.038  1.00  0.00     0.044 H 
HETATM   47  H   LIG     1      -5.437  19.100  65.163  1.00  0.00     0.044 H 
BRANCH  45  48
HETATM   48  C   LIG     1      -6.104  21.070  65.758  1.00  0.00     0.000 C 
HETATM   49  H   LIG     1      -6.869  21.791  65.443  1.00  0.00     0.064 H 
HETATM   50  H   LIG     1      -5.127  21.475  65.468  1.00  0.00     0.064 H 
BRANCH  48  51
HETATM   51  N   LIG     1      -6.129  21.005  67.209  1.00  0.00    -0.360 N 
HETATM   52  C   LIG     1      -4.954  20.885  67.929  1.00  0.00     0.221 C 
HETATM   53  O   LIG     1      -3.849  20.808  67.405  1.00  0.00    -0.273 OA
HETATM   54  H   LIG     1      -7.006  20.830  67.679  1.00  0.00     0.162 HD
BRANCH  52  55
HETATM   55  C   LIG     1      -5.175  20.831  69.441  1.00  0.00     0.024 C 
HETATM   56  C   LIG     1      -6.398  19.980  69.795  1.00  0.00    -0.051 C 
HETATM   57  C   LIG     1      -6.116  18.475  69.777  1.00  0.00    -0.040 C 
HETATM   58  H   LIG     1      -7.231  20.194  69.114  1.00  0.00     0.034 H 
HETATM   59  H   LIG     1      -6.737  20.262  70.800  1.00  0.00     0.034 H 
HETATM   60  C   LIG     1      -4.907  18.099  70.629  1.00  0.00     0.035 C 
HETATM   61  H   LIG     1      -5.956  18.143  68.746  1.00  0.00     0.036 H 
HETATM   62  H   LIG     1      -7.006  17.955  70.154  1.00  0.00     0.036 H 
HETATM   63  C   LIG     1      -3.667  18.893  70.235  1.00  0.00    -0.040 C 
HETATM   64  H   LIG     1      -4.696  17.028  70.531  1.00  0.00     0.082 H 
HETATM   65  C   LIG     1      -3.910  20.402  70.195  1.00  0.00    -0.051 C 
HETATM   66  H   LIG     1      -3.313  18.550  69.256  1.00  0.00     0.036 H 
HETATM   67  H   LIG     1      -2.862  18.699  70.954  1.00  0.00     0.036 H 
HETATM   68  H   LIG     1      -3.028  20.893  69.764  1.00  0.00     0.034 H 
HETATM   69  H   LIG     1      -3.991  20.766  71.227  1.00  0.00     0.034 H 
HETATM   70  H   LIG     1      -5.386  21.865  69.749  1.00  0.00     0.054 H 
BRANCH  60  71
HETATM   71  O   LIG     1      -5.196  18.352  72.002  1.00  0.00    -0.396 OA
HETATM   72  H   LIG     1      -5.155  17.498  72.466  1.00  0.00     0.210 HD
ENDBRANCH  60  71
ENDBRANCH  52  55
ENDBRANCH  48  51
ENDBRANCH  45  48
ENDBRANCH   4  45
TORSDOF 11
ENDMDL
MODEL 2
REMARK VINA RESULT:      -7.9      4.201     11.940
REMARK  11 active torsions:
REMARK  status: ('A' for Active; 'I' for Inactive)
REMARK    1  A    between atoms: N_1  and  S_2 
REMARK    2  A    between atoms: S_2  and  C_5 
REMARK    3  A    between atoms: C_8  and  C_9 
REMARK    4  A    between atoms: C_9  and  C_10 
REMARK    5  A    between atoms: C_14  and  N_15 
REMARK       I    between atoms: N_15  and  C_16 
REMARK       I    between atoms: C_16  and  N_18 
REMARK    6  A    between atoms: N_18  and  C_19 
REMARK    7  A    between atoms: C_22  and  C_23 
REMARK    8  A    between atoms: C_23  and  C_24 
REMARK    9  A    between atoms: C_24  and  N_25 
REMARK       I    between atoms: N_25  and  C_26 
REMARK   10  A    between atoms: C_26  and  C_28 
REMARK   11  A    between atoms: C_31  and  O_32 
ROOT
HETATM    1  C   LIG     1     -10.281  12.902  68.463  1.00  0.00     0.034 A 
HETATM    2  C   LIG     1      -9.128  12.319  67.954  1.00  0.00    -0.059 A 
HETATM    3  C   LIG     1      -9.177  11.011  67.478  1.00  0.00    -0.057 A 
HETATM    4  C   LIG     1     -10.391  10.326  67.511  1.00  0.00     0.035 A 
HETATM    5  N   LIG     1     -11.525  10.892  67.990  1.00  0.00    -0.264 NA
HETATM    6  C   LIG     1     -11.450  12.153  68.465  1.00  0.00     0.023 A 
HETATM    7  H   LIG     1      -8.190  12.867  67.952  1.00  0.00     0.086 H 
HETATM    8  H   LIG     1      -8.278  10.538  67.098  1.00  0.00     0.086 H 
HETATM    9  H   LIG     1     -12.382  12.549  68.859  1.00  0.00     0.117 H 
ENDROOT
BRANCH   1  10
HETATM   10  N   LIG     1     -10.220  14.234  68.921  1.00  0.00    -0.209 NA
HETATM   11  C   LIG     1      -9.959  15.255  68.014  1.00  0.00     0.303 C 
HETATM   12  N   LIG     1      -9.893  16.471  68.666  1.00  0.00    -0.313 N 
HETATM   13  O   LIG     1      -9.849  15.059  66.803  1.00  0.00    -0.253 OA
HETATM   14  H   LIG     1     -10.216  16.472  69.624  1.00  0.00     0.170 HD
HETATM   15  H   LIG     1      -9.605  14.332  69.721  1.00  0.00     0.138 HD
BRANCH  12  16
HETATM   16  C   LIG     1      -9.731  17.742  68.070  1.00  0.00     0.036 C 
HETATM   17  C   LIG     1     -10.766  18.388  67.397  1.00  0.00    -0.057 C 
HETATM   18  C   LIG     1     -10.624  19.713  67.008  1.00  0.00    -0.080 C 
HETATM   19  H   LIG     1     -11.717  17.909  67.190  1.00  0.00     0.086 H 
HETATM   20  C   LIG     1      -9.427  20.380  67.245  1.00  0.00    -0.076 C 
HETATM   21  H   LIG     1     -11.451  20.223  66.520  1.00  0.00     0.083 H 
HETATM   22  C   LIG     1      -8.294  19.697  67.709  1.00  0.00    -0.052 C 
HETATM   23  H   LIG     1      -9.370  21.434  66.982  1.00  0.00     0.084 H 
HETATM   24  C   LIG     1      -8.484  18.387  68.189  1.00  0.00    -0.051 C 
HETATM   25  H   LIG     1      -7.653  17.871  68.664  1.00  0.00     0.087 H 
BRANCH  22  26
HETATM   26  C   LIG     1      -6.917  20.352  67.741  1.00  0.00    -0.017 C 
HETATM   27  H   LIG     1      -7.033  21.313  68.260  1.00  0.00     0.047 H 
HETATM   28  H   LIG     1      -6.241  19.733  68.346  1.00  0.00     0.047 H 
BRANCH  26  29
HETATM   29  C   LIG     1      -6.201  20.611  66.405  1.00  0.00    -0.054 A 
HETATM   30  C   LIG     1      -5.043  21.392  66.286  1.00  0.00    -0.075 A 
HETATM   31  C   LIG     1      -4.334  21.481  65.086  1.00  0.00    -0.060 A 
HETATM   32  H   LIG     1      -4.639  21.931  67.140  1.00  0.00     0.084 H 
HETATM   33  C   LIG     1      -4.847  20.879  63.940  1.00  0.00     0.074 A 
HETATM   34  H   LIG     1      -3.390  22.020  65.094  1.00  0.00     0.085 H 
HETATM   35  C   LIG     1      -6.052  20.187  63.997  1.00  0.00    -0.060 A 
HETATM   36  C   LIG     1      -6.715  20.046  65.223  1.00  0.00    -0.075 A 
HETATM   37  H   LIG     1      -6.461  19.743  63.096  1.00  0.00     0.085 H 
HETATM   38  H   LIG     1      -7.648  19.488  65.254  1.00  0.00     0.084 H 
BRANCH  33  39
HETATM   39  S   LIG     1      -3.979  21.002  62.402  1.00  0.00     0.239 S 
HETATM   40  O   LIG     1      -3.761  19.658  61.916  1.00  0.00    -0.206 OA
HETATM   41  O   LIG     1      -2.885  21.937  62.554  1.00  0.00    -0.206 OA
BRANCH  39  42
HETATM   42  N   LIG     1      -5.116  21.763  61.406  1.00  0.00    -0.225 NA
HETATM   43  H   LIG     1      -4.914  22.741  61.186  1.00  0.00     0.136 HD
HETATM   44  H   LIG     1      -6.068  21.630  61.765  1.00  0.00     0.136 HD
ENDBRANCH  39  42
ENDBRANCH  33  39
ENDBRANCH  26  29
ENDBRANCH  22  26
ENDBRANCH  12  16
ENDBRANCH   1  10
BRANCH   4  45
HETATM   45  C   LIG     1     -10.464   8.899  67.023  1.00  0.00    -0.010 C 
HETATM   46  H   LIG     1     -10.058   8.856  66.005  1.00  0.00     0.044 H 
HETATM   47  H   LIG     1     -11.518   8.597  66.964  1.00  0.00     0.044 H 
BRANCH  45  48
HETATM   48  C   LIG     1      -9.697   7.921  67.916  1.00  0.00     0.000 C 
HETATM   49  H   LIG     1      -8.618   8.113  67.857  1.00  0.00     0.064 H 
HETATM   50  H   LIG     1      -9.868   6.886  67.602  1.00  0.00     0.064 H 
BRANCH  48  51
HETATM   51  N   LIG     1     -10.085   8.016  69.313  1.00  0.00    -0.360 N 
HETATM   52  C   LIG     1     -10.982   7.114  69.858  1.00  0.00     0.221 C 
HETATM   53  O   LIG     1     -11.506   6.214  69.212  1.00  0.00    -0.273 OA
HETATM   54  H   LIG     1      -9.873   8.860  69.828  1.00  0.00     0.162 HD
BRANCH  52  55
HETATM   55  C   LIG     1     -11.272   7.368  71.337  1.00  0.00     0.024 C 
HETATM   56  C   LIG     1     -11.315   8.868  71.646  1.00  0.00    -0.051 C 
HETATM   57  C   LIG     1     -12.643   9.528  71.267  1.00  0.00    -0.040 C 
HETATM   58  H   LIG     1     -10.498   9.394  71.137  1.00  0.00     0.034 H 
HETATM   59  H   LIG     1     -11.149   9.004  72.722  1.00  0.00     0.034 H 
HETATM   60  C   LIG     1     -13.846   8.800  71.859  1.00  0.00     0.035 C 
HETATM   61  H   LIG     1     -12.737   9.565  70.176  1.00  0.00     0.036 H 
HETATM   62  H   LIG     1     -12.626  10.564  71.628  1.00  0.00     0.036 H 
HETATM   63  C   LIG     1     -13.847   7.320  71.497  1.00  0.00    -0.040 C 
HETATM   64  H   LIG     1     -14.776   9.259  71.506  1.00  0.00     0.082 H 
HETATM   65  C   LIG     1     -12.524   6.623  71.817  1.00  0.00    -0.051 C 
HETATM   66  H   LIG     1     -14.075   7.207  70.431  1.00  0.00     0.036 H 
HETATM   67  H   LIG     1     -14.642   6.806  72.051  1.00  0.00     0.036 H 
HETATM   68  H   LIG     1     -12.545   5.610  71.397  1.00  0.00     0.034 H 
HETATM   69  H   LIG     1     -12.450   6.505  72.905  1.00  0.00     0.034 H 
HETATM   70  H   LIG     1     -10.423   6.938  71.886  1.00  0.00     0.054 H 
BRANCH  60  71
HETATM   71  O   LIG     1     -13.823   8.924  73.280  1.00  0.00    -0.396 OA
HETATM   72  H   LIG     1     -13.483   9.812  73.485  1.00  0.00     0.210 HD
ENDBRANCH  60  71
ENDBRANCH  52  55
ENDBRANCH  48  51
ENDBRANCH  45  48
ENDBRANCH   4  45
TORSDOF 11
ENDMDL
MODEL 3
REMARK VINA RESULT:      -7.8      5.736     10.306
REMARK  11 active torsions:
REMARK  status: ('A' for Active; 'I' for Inactive)
REMARK    1  A    between atoms: N_1  and  S_2 
REMARK    2  A    between atoms: S_2  and  C_5 
REMARK    3  A    between atoms: C_8  and  C_9 
REMARK    4  A    between atoms: C_9  and  C_10 
REMARK    5  A    between atoms: C_14  and  N_15 
REMARK       I    between atoms: N_15  and  C_16 
REMARK       I    between atoms: C_16  and  N_18 
REMARK    6  A    between atoms: N_18  and  C_19 
REMARK    7  A    between atoms: C_22  and  C_23 
REMARK    8  A    between atoms: C_23  and  C_24 
REMARK    9  A    between atoms: C_24  and  N_25 
REMARK       I    between atoms: N_25  and  C_26 
REMARK   10  A    between atoms: C_26  and  C_28 
REMARK   11  A    between atoms: C_31  and  O_32 
ROOT
HETATM    1  C   LIG     1     -12.282   8.077  72.009  1.00  0.00     0.034 A 
HETATM    2  C   LIG     1     -11.253   7.744  72.880  1.00  0.00    -0.059 A 
HETATM    3  C   LIG     1     -10.495   6.601  72.637  1.00  0.00    -0.057 A 
HETATM    4  C   LIG     1     -10.781   5.828  71.513  1.00  0.00     0.035 A 
HETATM    5  N   LIG     1     -11.771   6.154  70.647  1.00  0.00    -0.264 NA
HETATM    6  C   LIG     1     -12.507   7.254  70.913  1.00  0.00     0.023 A 
HETATM    7  H   LIG     1     -11.058   8.353  73.759  1.00  0.00     0.086 H 
HETATM    8  H   LIG     1      -9.703   6.320  73.323  1.00  0.00     0.086 H 
HETATM    9  H   LIG     1     -13.302   7.455  70.201  1.00  0.00     0.117 H 
ENDROOT
BRANCH   1  10
HETATM   10  N   LIG     1     -13.026   9.248  72.257  1.00  0.00    -0.209 NA
HETATM   11  C   LIG     1     -12.594  10.456  71.721  1.00  0.00     0.303 C 
HETATM   12  N   LIG     1     -13.428  11.483  72.118  1.00  0.00    -0.313 N 
HETATM   13  O   LIG     1     -11.620  10.543  70.971  1.00  0.00    -0.253 OA
HETATM   14  H   LIG     1     -14.293  11.199  72.557  1.00  0.00     0.170 HD
HETATM   15  H   LIG     1     -13.222   9.371  73.243  1.00  0.00     0.138 HD
BRANCH  12  16
HETATM   16  C   LIG     1     -13.361  12.834  71.707  1.00  0.00     0.036 C 
HETATM   17  C   LIG     1     -14.231  13.807  72.196  1.00  0.00    -0.057 C 
HETATM   18  C   LIG     1     -14.000  15.148  71.924  1.00  0.00    -0.080 C 
HETATM   19  H   LIG     1     -15.080  13.567  72.827  1.00  0.00     0.086 H 
HETATM   20  C   LIG     1     -12.928  15.517  71.118  1.00  0.00    -0.076 C 
HETATM   21  H   LIG     1     -14.660  15.905  72.342  1.00  0.00     0.083 H 
HETATM   22  C   LIG     1     -12.175  14.557  70.427  1.00  0.00    -0.052 C 
HETATM   23  H   LIG     1     -12.740  16.578  70.974  1.00  0.00     0.084 H 
HETATM   24  C   LIG     1     -12.358  13.210  70.792  1.00  0.00    -0.051 C 
HETATM   25  H   LIG     1     -11.708  12.450  70.362  1.00  0.00     0.087 H 
BRANCH  22  26
HETATM   26  C   LIG     1     -11.161  14.948  69.356  1.00  0.00    -0.017 C 
HETATM   27  H   LIG     1     -11.389  15.982  69.065  1.00  0.00     0.047 H 
HETATM   28  H   LIG     1     -10.156  14.948  69.800  1.00  0.00     0.047 H 
BRANCH  26  29
HETATM   29  C   LIG     1     -11.081  14.094  68.081  1.00  0.00    -0.054 A 
HETATM   30  C   LIG     1     -11.965  13.042  67.797  1.00  0.00    -0.075 A 
HETATM   31  C   LIG     1     -11.960  12.388  66.564  1.00  0.00    -0.060 A 
HETATM   32  H   LIG     1     -12.708  12.723  68.523  1.00  0.00     0.084 H 
HETATM   33  C   LIG     1     -10.978  12.699  65.626  1.00  0.00     0.074 A 
HETATM   34  H   LIG     1     -12.739  11.655  66.376  1.00  0.00     0.085 H 
HETATM   35  C   LIG     1     -10.018  13.662  65.917  1.00  0.00    -0.060 A 
HETATM   36  C   LIG     1     -10.078  14.361  67.130  1.00  0.00    -0.075 A 
HETATM   37  H   LIG     1      -9.239  13.881  65.194  1.00  0.00     0.085 H 
HETATM   38  H   LIG     1      -9.330  15.121  67.336  1.00  0.00     0.084 H 
BRANCH  33  39
HETATM   39  S   LIG     1     -10.937  11.863  64.067  1.00  0.00     0.239 S 
HETATM   40  O   LIG     1     -10.689  10.462  64.329  1.00  0.00    -0.206 OA
HETATM   41  O   LIG     1     -10.109  12.617  63.150  1.00  0.00    -0.206 OA
BRANCH  39  42
HETATM   42  N   LIG     1     -12.528  12.040  63.520  1.00  0.00    -0.225 NA
HETATM   43  H   LIG     1     -13.113  11.205  63.610  1.00  0.00     0.136 HD
HETATM   44  H   LIG     1     -12.552  12.434  62.573  1.00  0.00     0.136 HD
ENDBRANCH  39  42
ENDBRANCH  33  39
ENDBRANCH  26  29
ENDBRANCH  22  26
ENDBRANCH  12  16
ENDBRANCH   1  10
BRANCH   4  45
HETATM   45  C   LIG     1      -9.989   4.572  71.240  1.00  0.00    -0.010 C 
HETATM   46  H   LIG     1     -10.523   3.720  71.678  1.00  0.00     0.044 H 
HETATM   47  H   LIG     1      -9.020   4.644  71.752  1.00  0.00     0.044 H 
BRANCH  45  48
HETATM   48  C   LIG     1      -9.765   4.318  69.747  1.00  0.00     0.000 C 
HETATM   49  H   LIG     1     -10.721   4.123  69.244  1.00  0.00     0.064 H 
HETATM   50  H   LIG     1      -9.123   3.445  69.590  1.00  0.00     0.064 H 
BRANCH  48  51
HETATM   51  N   LIG     1      -9.134   5.442  69.077  1.00  0.00    -0.360 N 
HETATM   52  C   LIG     1      -9.635   5.920  67.879  1.00  0.00     0.221 C 
HETATM   53  O   LIG     1     -10.603   5.429  67.312  1.00  0.00    -0.273 OA
HETATM   54  H   LIG     1      -8.211   5.735  69.368  1.00  0.00     0.162 HD
BRANCH  52  55
HETATM   55  C   LIG     1      -8.844   7.104  67.322  1.00  0.00     0.024 C 
HETATM   56  C   LIG     1      -9.742   8.041  66.510  1.00  0.00    -0.051 C 
HETATM   57  C   LIG     1     -10.567   8.994  67.378  1.00  0.00    -0.040 C 
HETATM   58  H   LIG     1     -10.421   7.468  65.866  1.00  0.00     0.034 H 
HETATM   59  H   LIG     1      -9.107   8.635  65.841  1.00  0.00     0.034 H 
HETATM   60  C   LIG     1      -9.707   9.767  68.374  1.00  0.00     0.035 C 
HETATM   61  H   LIG     1     -11.335   8.430  67.917  1.00  0.00     0.036 H 
HETATM   62  H   LIG     1     -11.085   9.699  66.715  1.00  0.00     0.036 H 
HETATM   63  C   LIG     1      -8.861   8.836  69.234  1.00  0.00    -0.040 C 
HETATM   64  H   LIG     1     -10.342  10.381  69.022  1.00  0.00     0.082 H 
HETATM   65  C   LIG     1      -8.050   7.833  68.413  1.00  0.00    -0.051 C 
HETATM   66  H   LIG     1      -9.511   8.300  69.935  1.00  0.00     0.036 H 
HETATM   67  H   LIG     1      -8.159   9.427  69.835  1.00  0.00     0.036 H 
HETATM   68  H   LIG     1      -7.588   7.108  69.094  1.00  0.00     0.034 H 
HETATM   69  H   LIG     1      -7.225   8.371  67.929  1.00  0.00     0.034 H 
HETATM   70  H   LIG     1      -8.103   6.670  66.634  1.00  0.00     0.054 H 
BRANCH  60  71
HETATM   71  O   LIG     1      -8.840  10.651  67.666  1.00  0.00    -0.396 OA
HETATM   72  H   LIG     1      -8.946  10.459  66.718  1.00  0.00     0.210 HD
ENDBRANCH  60  71
ENDBRANCH  52  55
ENDBRANCH  48  51
ENDBRANCH  45  48
ENDBRANCH   4  45
TORSDOF 11
ENDMDL
MODEL 4
REMARK VINA RESULT:      -7.6      1.931      2.558
REMARK  11 active torsions:
REMARK  status: ('A' for Active; 'I' for Inactive)
REMARK    1  A    between atoms: N_1  and  S_2 
REMARK    2  A    between atoms: S_2  and  C_5 
REMARK    3  A    between atoms: C_8  and  C_9 
REMARK    4  A    between atoms: C_9  and  C_10 
REMARK    5  A    between atoms: C_14  and  N_15 
REMARK       I    between atoms: N_15  and  C_16 
REMARK       I    between atoms: C_16  and  N_18 
REMARK    6  A    between atoms: N_18  and  C_19 
REMARK    7  A    between atoms: C_22  and  C_23 
REMARK    8  A    between atoms: C_23  and  C_24 
REMARK    9  A    between atoms: C_24  and  N_25 
REMARK       I    between atoms: N_25  and  C_26 
REMARK   10  A    between atoms: C_26  and  C_28 
REMARK   11  A    between atoms: C_31  and  O_32 
ROOT
HETATM    1  C   LIG     1      -9.894  17.801  67.318  1.00  0.00     0.034 A 
HETATM    2  C   LIG     1      -9.688  19.154  67.556  1.00  0.00    -0.059 A 
HETATM    3  C   LIG     1      -8.554  19.774  67.035  1.00  0.00    -0.057 A 
HETATM    4  C   LIG     1      -7.662  19.020  66.275  1.00  0.00     0.035 A 
HETATM    5  N   LIG     1      -7.863  17.703  66.023  1.00  0.00    -0.264 NA
HETATM    6  C   LIG     1      -8.958  17.118  66.555  1.00  0.00     0.023 A 
HETATM    7  H   LIG     1     -10.389  19.719  68.165  1.00  0.00     0.086 H 
HETATM    8  H   LIG     1      -8.372  20.825  67.233  1.00  0.00     0.086 H 
HETATM    9  H   LIG     1      -9.057  16.058  66.342  1.00  0.00     0.117 H 
ENDROOT
BRANCH   1  10
HETATM   10  N   LIG     1     -11.057  17.194  67.834  1.00  0.00    -0.209 NA
HETATM   11  C   LIG     1     -10.961  16.388  68.964  1.00  0.00     0.303 C 
HETATM   12  N   LIG     1     -12.195  15.854  69.277  1.00  0.00    -0.313 N 
HETATM   13  O   LIG     1      -9.908  16.234  69.585  1.00  0.00    -0.253 OA
HETATM   14  H   LIG     1     -12.983  16.254  68.787  1.00  0.00     0.170 HD
HETATM   15  H   LIG     1     -11.580  16.705  67.118  1.00  0.00     0.138 HD
BRANCH  12  16
HETATM   16  C   LIG     1     -12.511  15.058  70.402  1.00  0.00     0.036 C 
HETATM   17  C   LIG     1     -12.896  15.610  71.623  1.00  0.00    -0.057 C 
HETATM   18  C   LIG     1     -13.391  14.794  72.631  1.00  0.00    -0.080 C 
HETATM   19  H   LIG     1     -12.866  16.677  71.816  1.00  0.00     0.086 H 
HETATM   20  C   LIG     1     -13.452  13.418  72.441  1.00  0.00    -0.076 C 
HETATM   21  H   LIG     1     -13.728  15.237  73.565  1.00  0.00     0.083 H 
HETATM   22  C   LIG     1     -12.862  12.812  71.323  1.00  0.00    -0.052 C 
HETATM   23  H   LIG     1     -13.900  12.815  73.227  1.00  0.00     0.084 H 
HETATM   24  C   LIG     1     -12.458  13.656  70.271  1.00  0.00    -0.051 C 
HETATM   25  H   LIG     1     -12.106  13.214  69.342  1.00  0.00     0.087 H 
BRANCH  22  26
HETATM   26  C   LIG     1     -12.704  11.298  71.219  1.00  0.00    -0.017 C 
HETATM   27  H   LIG     1     -12.330  10.949  72.190  1.00  0.00     0.047 H 
HETATM   28  H   LIG     1     -13.693  10.846  71.068  1.00  0.00     0.047 H 
BRANCH  26  29
HETATM   29  C   LIG     1     -11.788  10.735  70.120  1.00  0.00    -0.054 A 
HETATM   30  C   LIG     1     -10.713   9.871  70.375  1.00  0.00    -0.075 A 
HETATM   31  C   LIG     1      -9.999   9.259  69.343  1.00  0.00    -0.060 A 
HETATM   32  H   LIG     1     -10.422   9.623  71.393  1.00  0.00     0.084 H 
HETATM   33  C   LIG     1     -10.274   9.600  68.022  1.00  0.00     0.074 A 
HETATM   34  H   LIG     1      -9.248   8.522  69.615  1.00  0.00     0.085 H 
HETATM   35  C   LIG     1     -11.261  10.537  67.736  1.00  0.00    -0.060 A 
HETATM   36  C   LIG     1     -12.018  11.089  68.778  1.00  0.00    -0.075 A 
HETATM   37  H   LIG     1     -11.453  10.820  66.707  1.00  0.00     0.085 H 
HETATM   38  H   LIG     1     -12.797  11.808  68.536  1.00  0.00     0.084 H 
BRANCH  33  39
HETATM   39  S   LIG     1      -9.362   8.856  66.700  1.00  0.00     0.239 S 
HETATM   40  O   LIG     1      -8.072   8.468  67.225  1.00  0.00    -0.206 OA
HETATM   41  O   LIG     1      -9.478   9.689  65.522  1.00  0.00    -0.206 OA
BRANCH  39  42
HETATM   42  N   LIG     1     -10.262   7.460  66.381  1.00  0.00    -0.225 NA
HETATM   43  H   LIG     1      -9.932   6.614  66.854  1.00  0.00     0.136 HD
HETATM   44  H   LIG     1     -10.385   7.321  65.372  1.00  0.00     0.136 HD
ENDBRANCH  39  42
ENDBRANCH  33  39
ENDBRANCH  26  29
ENDBRANCH  22  26
ENDBRANCH  12  16
ENDBRANCH   1  10
BRANCH   4  45
HETATM   45  C   LIG     1      -6.414  19.663  65.720  1.00  0.00    -0.010 C 
HETATM   46  H   LIG     1      -6.260  20.622  66.228  1.00  0.00     0.044 H 
HETATM   47  H   LIG     1      -6.569  19.881  64.655  1.00  0.00     0.044 H 
BRANCH  45  48
HETATM   48  C   LIG     1      -5.167  18.792  65.891  1.00  0.00     0.000 C 
HETATM   49  H   LIG     1      -4.283  19.305  65.490  1.00  0.00     0.064 H 
HETATM   50  H   LIG     1      -5.273  17.844  65.351  1.00  0.00     0.064 H 
BRANCH  48  51
HETATM   51  N   LIG     1      -4.897  18.468  67.280  1.00  0.00    -0.360 N 
HETATM   52  C   LIG     1      -4.065  19.268  68.043  1.00  0.00     0.221 C 
HETATM   53  O   LIG     1      -3.502  20.264  67.603  1.00  0.00    -0.273 OA
HETATM   54  H   LIG     1      -5.138  17.549  67.628  1.00  0.00     0.162 HD
BRANCH  52  55
HETATM   55  C   LIG     1      -3.898  18.772  69.479  1.00  0.00     0.024 C 
HETATM   56  C   LIG     1      -2.500  19.089  70.018  1.00  0.00    -0.051 C 
HETATM   57  C   LIG     1      -2.346  20.536  70.495  1.00  0.00    -0.040 C 
HETATM   58  H   LIG     1      -1.734  18.881  69.261  1.00  0.00     0.034 H 
HETATM   59  H   LIG     1      -2.293  18.418  70.861  1.00  0.00     0.034 H 
HETATM   60  C   LIG     1      -3.434  20.941  71.486  1.00  0.00     0.035 C 
HETATM   61  H   LIG     1      -2.365  21.211  69.632  1.00  0.00     0.036 H 
HETATM   62  H   LIG     1      -1.361  20.638  70.968  1.00  0.00     0.036 H 
HETATM   63  C   LIG     1      -4.830  20.693  70.927  1.00  0.00    -0.040 C 
HETATM   64  H   LIG     1      -3.331  22.001  71.745  1.00  0.00     0.082 H 
HETATM   65  C   LIG     1      -5.020  19.272  70.398  1.00  0.00    -0.051 C 
HETATM   66  H   LIG     1      -5.035  21.415  70.129  1.00  0.00     0.036 H 
HETATM   67  H   LIG     1      -5.576  20.864  71.714  1.00  0.00     0.036 H 
HETATM   68  H   LIG     1      -5.986  19.211  69.882  1.00  0.00     0.034 H 
HETATM   69  H   LIG     1      -5.084  18.590  71.255  1.00  0.00     0.034 H 
HETATM   70  H   LIG     1      -3.998  17.679  69.430  1.00  0.00     0.054 H 
BRANCH  60  71
HETATM   71  O   LIG     1      -3.282  20.192  72.690  1.00  0.00    -0.396 OA
HETATM   72  H   LIG     1      -3.146  20.832  73.410  1.00  0.00     0.210 HD
ENDBRANCH  60  71
ENDBRANCH  52  55
ENDBRANCH  48  51
ENDBRANCH  45  48
ENDBRANCH   4  45
TORSDOF 11
ENDMDL
MODEL 5
REMARK VINA RESULT:      -7.6      4.798     11.775
REMARK  11 active torsions:
REMARK  status: ('A' for Active; 'I' for Inactive)
REMARK    1  A    between atoms: N_1  and  S_2 
REMARK    2  A    between atoms: S_2  and  C_5 
REMARK    3  A    between atoms: C_8  and  C_9 
REMARK    4  A    between atoms: C_9  and  C_10 
REMARK    5  A    between atoms: C_14  and  N_15 
REMARK       I    between atoms: N_15  and  C_16 
REMARK       I    between atoms: C_16  and  N_18 
REMARK    6  A    between atoms: N_18  and  C_19 
REMARK    7  A    between atoms: C_22  and  C_23 
REMARK    8  A    between atoms: C_23  and  C_24 
REMARK    9  A    between atoms: C_24  and  N_25 
REMARK       I    between atoms: N_25  and  C_26 
REMARK   10  A    between atoms: C_26  and  C_28 
REMARK   11  A    between atoms: C_31  and  O_32 
ROOT
HETATM    1  C   LIG     1      -8.357   6.909  66.385  1.00  0.00     0.034 A 
HETATM    2  C   LIG     1      -7.480   6.985  67.459  1.00  0.00    -0.059 A 
HETATM    3  C   LIG     1      -7.306   5.870  68.278  1.00  0.00    -0.057 A 
HETATM    4  C   LIG     1      -8.006   4.701  67.984  1.00  0.00     0.035 A 
HETATM    5  N   LIG     1      -8.850   4.613  66.928  1.00  0.00    -0.264 NA
HETATM    6  C   LIG     1      -9.020   5.710  66.161  1.00  0.00     0.023 A 
HETATM    7  H   LIG     1      -6.957   7.911  67.678  1.00  0.00     0.086 H 
HETATM    8  H   LIG     1      -6.640   5.925  69.132  1.00  0.00     0.086 H 
HETATM    9  H   LIG     1      -9.726   5.591  65.343  1.00  0.00     0.117 H 
ENDROOT
BRANCH   1  10
HETATM   10  N   LIG     1      -8.506   8.038  65.554  1.00  0.00    -0.209 NA
HETATM   11  C   LIG     1      -9.598   8.880  65.739  1.00  0.00     0.303 C 
HETATM   12  N   LIG     1      -9.587   9.893  64.800  1.00  0.00    -0.313 N 
HETATM   13  O   LIG     1     -10.412   8.726  66.651  1.00  0.00    -0.253 OA
HETATM   14  H   LIG     1      -8.734   9.985  64.266  1.00  0.00     0.170 HD
HETATM   15  H   LIG     1      -8.431   7.800  64.572  1.00  0.00     0.138 HD
BRANCH  12  16
HETATM   16  C   LIG     1     -10.482  10.984  64.724  1.00  0.00     0.036 C 
HETATM   17  C   LIG     1     -11.083  11.374  63.528  1.00  0.00    -0.057 C 
HETATM   18  C   LIG     1     -12.105  12.314  63.536  1.00  0.00    -0.080 C 
HETATM   19  H   LIG     1     -10.813  10.941  62.571  1.00  0.00     0.086 H 
HETATM   20  C   LIG     1     -12.493  12.905  64.734  1.00  0.00    -0.076 C 
HETATM   21  H   LIG     1     -12.597  12.583  62.605  1.00  0.00     0.083 H 
HETATM   22  C   LIG     1     -11.759  12.708  65.912  1.00  0.00    -0.052 C 
HETATM   23  H   LIG     1     -13.335  13.592  64.714  1.00  0.00     0.084 H 
HETATM   24  C   LIG     1     -10.796  11.682  65.907  1.00  0.00    -0.051 C 
HETATM   25  H   LIG     1     -10.292  11.422  66.835  1.00  0.00     0.087 H 
BRANCH  22  26
HETATM   26  C   LIG     1     -12.019  13.533  67.169  1.00  0.00    -0.017 C 
HETATM   27  H   LIG     1     -13.107  13.666  67.243  1.00  0.00     0.047 H 
HETATM   28  H   LIG     1     -11.700  12.956  68.047  1.00  0.00     0.047 H 
BRANCH  26  29
HETATM   29  C   LIG     1     -11.356  14.915  67.284  1.00  0.00    -0.054 A 
HETATM   30  C   LIG     1     -10.651  15.525  66.235  1.00  0.00    -0.075 A 
HETATM   31  C   LIG     1     -10.193  16.841  66.323  1.00  0.00    -0.060 A 
HETATM   32  H   LIG     1     -10.466  14.998  65.302  1.00  0.00     0.084 H 
HETATM   33  C   LIG     1     -10.330  17.537  67.521  1.00  0.00     0.074 A 
HETATM   34  H   LIG     1      -9.747  17.282  65.436  1.00  0.00     0.085 H 
HETATM   35  C   LIG     1     -10.927  16.924  68.618  1.00  0.00    -0.060 A 
HETATM   36  C   LIG     1     -11.445  15.628  68.493  1.00  0.00    -0.075 A 
HETATM   37  H   LIG     1     -11.006  17.461  69.557  1.00  0.00     0.085 H 
HETATM   38  H   LIG     1     -11.923  15.170  69.355  1.00  0.00     0.084 H 
BRANCH  33  39
HETATM   39  S   LIG     1      -9.732  19.197  67.662  1.00  0.00     0.239 S 
HETATM   40  O   LIG     1     -10.468  20.007  66.717  1.00  0.00    -0.206 OA
HETATM   41  O   LIG     1      -8.285  19.176  67.673  1.00  0.00    -0.206 OA
BRANCH  39  42
HETATM   42  N   LIG     1     -10.210  19.620  69.229  1.00  0.00    -0.225 NA
HETATM   43  H   LIG     1     -11.220  19.603  69.394  1.00  0.00     0.136 HD
HETATM   44  H   LIG     1      -9.781  20.506  69.519  1.00  0.00     0.136 HD
ENDBRANCH  39  42
ENDBRANCH  33  39
ENDBRANCH  26  29
ENDBRANCH  22  26
ENDBRANCH  12  16
ENDBRANCH   1  10
BRANCH   4  45
HETATM   45  C   LIG     1      -7.852   3.488  68.869  1.00  0.00    -0.010 C 
HETATM   46  H   LIG     1      -6.970   3.630  69.507  1.00  0.00     0.044 H 
HETATM   47  H   LIG     1      -7.658   2.610  68.240  1.00  0.00     0.044 H 
BRANCH  45  48
HETATM   48  C   LIG     1      -9.077   3.231  69.750  1.00  0.00     0.000 C 
HETATM   49  H   LIG     1      -8.774   3.064  70.791  1.00  0.00     0.064 H 
HETATM   50  H   LIG     1      -9.620   2.339  69.416  1.00  0.00     0.064 H 
BRANCH  48  51
HETATM   51  N   LIG     1     -10.019   4.337  69.735  1.00  0.00    -0.360 N 
HETATM   52  C   LIG     1     -10.296   5.042  70.892  1.00  0.00     0.221 C 
HETATM   53  O   LIG     1      -9.794   4.776  71.978  1.00  0.00    -0.273 OA
HETATM   54  H   LIG     1     -10.630   4.453  68.938  1.00  0.00     0.162 HD
BRANCH  52  55
HETATM   55  C   LIG     1     -11.309   6.169  70.687  1.00  0.00     0.024 C 
HETATM   56  C   LIG     1     -11.818   6.711  72.025  1.00  0.00    -0.051 C 
HETATM   57  C   LIG     1     -10.851   7.695  72.689  1.00  0.00    -0.040 C 
HETATM   58  H   LIG     1     -12.026   5.891  72.724  1.00  0.00     0.034 H 
HETATM   59  H   LIG     1     -12.774   7.221  71.851  1.00  0.00     0.034 H 
HETATM   60  C   LIG     1     -10.433   8.823  71.750  1.00  0.00     0.035 C 
HETATM   61  H   LIG     1      -9.962   7.159  73.037  1.00  0.00     0.036 H 
HETATM   62  H   LIG     1     -11.345   8.117  73.573  1.00  0.00     0.036 H 
HETATM   63  C   LIG     1      -9.860   8.290  70.443  1.00  0.00    -0.040 C 
HETATM   64  H   LIG     1      -9.687   9.462  72.238  1.00  0.00     0.082 H 
HETATM   65  C   LIG     1     -10.771   7.268  69.762  1.00  0.00    -0.051 C 
HETATM   66  H   LIG     1      -8.879   7.841  70.634  1.00  0.00     0.036 H 
HETATM   67  H   LIG     1      -9.702   9.121  69.744  1.00  0.00     0.036 H 
HETATM   68  H   LIG     1     -10.235   6.821  68.916  1.00  0.00     0.034 H 
HETATM   69  H   LIG     1     -11.630   7.802  69.336  1.00  0.00     0.034 H 
HETATM   70  H   LIG     1     -12.161   5.711  70.165  1.00  0.00     0.054 H 
BRANCH  60  71
HETATM   71  O   LIG     1     -11.564   9.640  71.456  1.00  0.00    -0.396 OA
HETATM   72  H   LIG     1     -11.404  10.051  70.589  1.00  0.00     0.210 HD
ENDBRANCH  60  71
ENDBRANCH  52  55
ENDBRANCH  48  51
ENDBRANCH  45  48
ENDBRANCH   4  45
TORSDOF 11
ENDMDL
MODEL 6
REMARK VINA RESULT:      -7.6      4.633      8.718
REMARK  11 active torsions:
REMARK  status: ('A' for Active; 'I' for Inactive)
REMARK    1  A    between atoms: N_1  and  S_2 
REMARK    2  A    between atoms: S_2  and  C_5 
REMARK    3  A    between atoms: C_8  and  C_9 
REMARK    4  A    between atoms: C_9  and  C_10 
REMARK    5  A    between atoms: C_14  and  N_15 
REMARK       I    between atoms: N_15  and  C_16 
REMARK       I    between atoms: C_16  and  N_18 
REMARK    6  A    between atoms: N_18  and  C_19 
REMARK    7  A    between atoms: C_22  and  C_23 
REMARK    8  A    between atoms: C_23  and  C_24 
REMARK    9  A    between atoms: C_24  and  N_25 
REMARK       I    between atoms: N_25  and  C_26 
REMARK   10  A    between atoms: C_26  and  C_28 
REMARK   11  A    between atoms: C_31  and  O_32 
ROOT
HETATM    1  C   LIG     1     -12.730  10.871  70.647  1.00  0.00     0.034 A 
HETATM    2  C   LIG     1     -13.247  11.572  71.729  1.00  0.00    -0.059 A 
HETATM    3  C   LIG     1     -13.145  12.962  71.754  1.00  0.00    -0.057 A 
HETATM    4  C   LIG     1     -12.538  13.613  70.681  1.00  0.00     0.035 A 
HETATM    5  N   LIG     1     -12.046  12.939  69.614  1.00  0.00    -0.264 NA
HETATM    6  C   LIG     1     -12.138  11.592  69.620  1.00  0.00     0.023 A 
HETATM    7  H   LIG     1     -13.702  11.042  72.561  1.00  0.00     0.086 H 
HETATM    8  H   LIG     1     -13.526  13.517  72.604  1.00  0.00     0.086 H 
HETATM    9  H   LIG     1     -11.706  11.101  68.752  1.00  0.00     0.117 H 
ENDROOT
BRANCH   1  10
HETATM   10  N   LIG     1     -12.861   9.468  70.627  1.00  0.00    -0.209 NA
HETATM   11  C   LIG     1     -11.825   8.680  71.116  1.00  0.00     0.303 C 
HETATM   12  N   LIG     1     -12.127   7.341  70.963  1.00  0.00    -0.313 N 
HETATM   13  O   LIG     1     -10.815   9.156  71.639  1.00  0.00    -0.253 OA
HETATM   14  H   LIG     1     -13.083   7.134  70.711  1.00  0.00     0.170 HD
HETATM   15  H   LIG     1     -13.139   9.125  69.715  1.00  0.00     0.138 HD
BRANCH  12  16
HETATM   16  C   LIG     1     -11.359   6.244  71.418  1.00  0.00     0.036 C 
HETATM   17  C   LIG     1     -10.765   5.335  70.544  1.00  0.00    -0.057 C 
HETATM   18  C   LIG     1      -9.858   4.399  71.022  1.00  0.00    -0.080 C 
HETATM   19  H   LIG     1     -10.951   5.347  69.475  1.00  0.00     0.086 H 
HETATM   20  C   LIG     1      -9.582   4.336  72.384  1.00  0.00    -0.076 C 
HETATM   21  H   LIG     1      -9.368   3.721  70.329  1.00  0.00     0.083 H 
HETATM   22  C   LIG     1     -10.328   5.076  73.312  1.00  0.00    -0.052 C 
HETATM   23  H   LIG     1      -8.823   3.633  72.718  1.00  0.00     0.084 H 
HETATM   24  C   LIG     1     -11.168   6.085  72.804  1.00  0.00    -0.051 C 
HETATM   25  H   LIG     1     -11.671   6.756  73.499  1.00  0.00     0.087 H 
BRANCH  22  26
HETATM   26  C   LIG     1     -10.207   4.837  74.814  1.00  0.00    -0.017 C 
HETATM   27  H   LIG     1     -11.210   4.973  75.240  1.00  0.00     0.047 H 
HETATM   28  H   LIG     1      -9.917   3.792  74.987  1.00  0.00     0.047 H 
BRANCH  26  29
HETATM   29  C   LIG     1      -9.223   5.707  75.613  1.00  0.00    -0.054 A 
HETATM   30  C   LIG     1      -9.141   5.696  77.014  1.00  0.00    -0.075 A 
HETATM   31  C   LIG     1      -8.135   6.382  77.698  1.00  0.00    -0.060 A 
HETATM   32  H   LIG     1      -9.843   5.121  77.612  1.00  0.00     0.084 H 
HETATM   33  C   LIG     1      -7.258   7.199  76.990  1.00  0.00     0.074 A 
HETATM   34  H   LIG     1      -8.071   6.244  78.774  1.00  0.00     0.085 H 
HETATM   35  C   LIG     1      -7.379   7.320  75.610  1.00  0.00    -0.060 A 
HETATM   36  C   LIG     1      -8.348   6.570  74.928  1.00  0.00    -0.075 A 
HETATM   37  H   LIG     1      -6.711   7.979  75.066  1.00  0.00     0.085 H 
HETATM   38  H   LIG     1      -8.419   6.663  73.848  1.00  0.00     0.084 H 
BRANCH  33  39
HETATM   39  S   LIG     1      -5.993   8.099  77.840  1.00  0.00     0.239 S 
HETATM   40  O   LIG     1      -4.737   7.814  77.182  1.00  0.00    -0.206 OA
HETATM   41  O   LIG     1      -6.158   7.909  79.265  1.00  0.00    -0.206 OA
BRANCH  39  42
HETATM   42  N   LIG     1      -6.420   9.705  77.525  1.00  0.00    -0.225 NA
HETATM   43  H   LIG     1      -5.700  10.262  77.057  1.00  0.00     0.136 HD
HETATM   44  H   LIG     1      -6.781  10.164  78.369  1.00  0.00     0.136 HD
ENDBRANCH  39  42
ENDBRANCH  33  39
ENDBRANCH  26  29
ENDBRANCH  22  26
ENDBRANCH  12  16
ENDBRANCH   1  10
BRANCH   4  45
HETATM   45  C   LIG     1     -12.394  15.116  70.697  1.00  0.00    -0.010 C 
HETATM   46  H   LIG     1     -12.906  15.507  71.583  1.00  0.00     0.044 H 
HETATM   47  H   LIG     1     -12.904  15.531  69.818  1.00  0.00     0.044 H 
BRANCH  45  48
HETATM   48  C   LIG     1     -10.934  15.576  70.711  1.00  0.00     0.000 C 
HETATM   49  H   LIG     1     -10.417  15.189  71.598  1.00  0.00     0.064 H 
HETATM   50  H   LIG     1     -10.868  16.670  70.739  1.00  0.00     0.064 H 
BRANCH  48  51
HETATM   51  N   LIG     1     -10.196  15.131  69.541  1.00  0.00    -0.360 N 
HETATM   52  C   LIG     1     -10.181  15.892  68.386  1.00  0.00     0.221 C 
HETATM   53  O   LIG     1     -10.788  16.950  68.270  1.00  0.00    -0.273 OA
HETATM   54  H   LIG     1      -9.874  14.174  69.496  1.00  0.00     0.162 HD
BRANCH  52  55
HETATM   55  C   LIG     1      -9.355  15.268  67.261  1.00  0.00     0.024 C 
HETATM   56  C   LIG     1      -9.637  13.768  67.129  1.00  0.00    -0.051 C 
HETATM   57  C   LIG     1     -10.924  13.458  66.362  1.00  0.00    -0.040 C 
HETATM   58  H   LIG     1      -9.688  13.293  68.117  1.00  0.00     0.034 H 
HETATM   59  H   LIG     1      -8.794  13.302  66.604  1.00  0.00     0.034 H 
HETATM   60  C   LIG     1     -10.979  14.159  65.007  1.00  0.00     0.035 C 
HETATM   61  H   LIG     1     -11.791  13.753  66.963  1.00  0.00     0.036 H 
HETATM   62  H   LIG     1     -10.983  12.372  66.216  1.00  0.00     0.036 H 
HETATM   63  C   LIG     1     -10.768  15.663  65.139  1.00  0.00    -0.040 C 
HETATM   64  H   LIG     1     -11.944  13.970  64.524  1.00  0.00     0.082 H 
HETATM   65  C   LIG     1      -9.515  16.024  65.937  1.00  0.00    -0.051 C 
HETATM   66  H   LIG     1     -11.649  16.112  65.610  1.00  0.00     0.036 H 
HETATM   67  H   LIG     1     -10.674  16.110  64.141  1.00  0.00     0.036 H 
HETATM   68  H   LIG     1      -9.508  17.107  66.117  1.00  0.00     0.034 H 
HETATM   69  H   LIG     1      -8.636  15.810  65.316  1.00  0.00     0.034 H 
HETATM   70  H   LIG     1      -8.304  15.385  67.563  1.00  0.00     0.054 H 
BRANCH  60  71
HETATM   71  O   LIG     1      -9.965  13.627  64.156  1.00  0.00    -0.396 OA
HETATM   72  H   LIG     1      -9.113  13.972  64.474  1.00  0.00     0.210 HD
ENDBRANCH  60  71
ENDBRANCH  52  55
ENDBRANCH  48  51
ENDBRANCH  45  48
ENDBRANCH   4  45
TORSDOF 11
ENDMDL
MODEL 7
REMARK VINA RESULT:      -7.0      4.721      8.354
REMARK  11 active torsions:
REMARK  status: ('A' for Active; 'I' for Inactive)
REMARK    1  A    between atoms: N_1  and  S_2 
REMARK    2  A    between atoms: S_2  and  C_5 
REMARK    3  A    between atoms: C_8  and  C_9 
REMARK    4  A    between atoms: C_9  and  C_10 
REMARK    5  A    between atoms: C_14  and  N_15 
REMARK       I    between atoms: N_15  and  C_16 
REMARK       I    between atoms: C_16  and  N_18 
REMARK    6  A    between atoms: N_18  and  C_19 
REMARK    7  A    between atoms: C_22  and  C_23 
REMARK    8  A    between atoms: C_23  and  C_24 
REMARK    9  A    between atoms: C_24  and  N_25 
REMARK       I    between atoms: N_25  and  C_26 
REMARK   10  A    between atoms: C_26  and  C_28 
REMARK   11  A    between atoms: C_31  and  O_32 
ROOT
HETATM    1  C   LIG     1     -12.154  10.473  70.930  1.00  0.00     0.034 A 
HETATM    2  C   LIG     1     -12.567  11.716  71.391  1.00  0.00    -0.059 A 
HETATM    3  C   LIG     1     -12.499  12.817  70.540  1.00  0.00    -0.057 A 
HETATM    4  C   LIG     1     -12.031  12.636  69.239  1.00  0.00     0.035 A 
HETATM    5  N   LIG     1     -11.643  11.424  68.775  1.00  0.00    -0.264 NA
HETATM    6  C   LIG     1     -11.697  10.375  69.623  1.00  0.00     0.023 A 
HETATM    7  H   LIG     1     -12.914  11.836  72.413  1.00  0.00     0.086 H 
HETATM    8  H   LIG     1     -12.799  13.797  70.896  1.00  0.00     0.086 H 
HETATM    9  H   LIG     1     -11.351   9.433  69.207  1.00  0.00     0.117 H 
ENDROOT
BRANCH   1  10
HETATM   10  N   LIG     1     -12.249   9.365  71.796  1.00  0.00    -0.209 NA
HETATM   11  C   LIG     1     -11.121   8.587  72.034  1.00  0.00     0.303 C 
HETATM   12  N   LIG     1     -11.434   7.531  72.867  1.00  0.00    -0.313 N 
HETATM   13  O   LIG     1     -10.012   8.864  71.574  1.00  0.00    -0.253 OA
HETATM   14  H   LIG     1     -12.338   7.579  73.315  1.00  0.00     0.170 HD
HETATM   15  H   LIG     1     -13.027   8.761  71.558  1.00  0.00     0.138 HD
BRANCH  12  16
HETATM   16  C   LIG     1     -10.534   6.578  73.398  1.00  0.00     0.036 C 
HETATM   17  C   LIG     1     -10.531   5.245  72.991  1.00  0.00    -0.057 C 
HETATM   18  C   LIG     1      -9.504   4.399  73.385  1.00  0.00    -0.080 C 
HETATM   19  H   LIG     1     -11.288   4.835  72.331  1.00  0.00     0.086 H 
HETATM   20  C   LIG     1      -8.505   4.869  74.231  1.00  0.00    -0.076 C 
HETATM   21  H   LIG     1      -9.486   3.371  73.030  1.00  0.00     0.083 H 
HETATM   22  C   LIG     1      -8.602   6.128  74.840  1.00  0.00    -0.052 C 
HETATM   23  H   LIG     1      -7.684   4.198  74.473  1.00  0.00     0.084 H 
HETATM   24  C   LIG     1      -9.591   7.004  74.354  1.00  0.00    -0.051 C 
HETATM   25  H   LIG     1      -9.619   8.028  74.720  1.00  0.00     0.087 H 
BRANCH  22  26
HETATM   26  C   LIG     1      -7.650   6.559  75.953  1.00  0.00    -0.017 C 
HETATM   27  H   LIG     1      -8.213   6.498  76.894  1.00  0.00     0.047 H 
HETATM   28  H   LIG     1      -6.827   5.835  76.016  1.00  0.00     0.047 H 
BRANCH  26  29
HETATM   29  C   LIG     1      -7.009   7.952  75.864  1.00  0.00    -0.054 A 
HETATM   30  C   LIG     1      -7.187   8.950  76.834  1.00  0.00    -0.075 A 
HETATM   31  C   LIG     1      -6.469  10.148  76.799  1.00  0.00    -0.060 A 
HETATM   32  H   LIG     1      -7.870   8.807  77.667  1.00  0.00     0.084 H 
HETATM   33  C   LIG     1      -5.641  10.420  75.714  1.00  0.00     0.074 A 
HETATM   34  H   LIG     1      -6.581  10.829  77.638  1.00  0.00     0.085 H 
HETATM   35  C   LIG     1      -5.525   9.499  74.678  1.00  0.00    -0.060 A 
HETATM   36  C   LIG     1      -6.195   8.271  74.761  1.00  0.00    -0.075 A 
HETATM   37  H   LIG     1      -4.900   9.728  73.822  1.00  0.00     0.085 H 
HETATM   38  H   LIG     1      -6.081   7.556  73.951  1.00  0.00     0.084 H 
BRANCH  33  39
HETATM   39  S   LIG     1      -4.743  11.944  75.637  1.00  0.00     0.239 S 
HETATM   40  O   LIG     1      -4.321  12.132  74.266  1.00  0.00    -0.206 OA
HETATM   41  O   LIG     1      -3.798  11.988  76.731  1.00  0.00    -0.206 OA
BRANCH  39  42
HETATM   42  N   LIG     1      -5.939  13.085  75.998  1.00  0.00    -0.225 NA
HETATM   43  H   LIG     1      -6.716  13.125  75.334  1.00  0.00     0.136 HD
HETATM   44  H   LIG     1      -5.526  14.009  76.173  1.00  0.00     0.136 HD
ENDBRANCH  39  42
ENDBRANCH  33  39
ENDBRANCH  26  29
ENDBRANCH  22  26
ENDBRANCH  12  16
ENDBRANCH   1  10
BRANCH   4  45
HETATM   45  C   LIG     1     -11.926  13.818  68.306  1.00  0.00    -0.010 C 
HETATM   46  H   LIG     1     -12.645  14.582  68.626  1.00  0.00     0.044 H 
HETATM   47  H   LIG     1     -12.219  13.502  67.296  1.00  0.00     0.044 H 
BRANCH  45  48
HETATM   48  C   LIG     1     -10.522  14.427  68.268  1.00  0.00     0.000 C 
HETATM   49  H   LIG     1      -9.840  13.784  67.697  1.00  0.00     0.064 H 
HETATM   50  H   LIG     1     -10.112  14.530  69.279  1.00  0.00     0.064 H 
BRANCH  48  51
HETATM   51  N   LIG     1     -10.500  15.745  67.659  1.00  0.00    -0.360 N 
HETATM   52  C   LIG     1     -10.622  16.883  68.436  1.00  0.00     0.221 C 
HETATM   53  O   LIG     1     -10.771  16.853  69.652  1.00  0.00    -0.273 OA
HETATM   54  H   LIG     1     -10.613  15.828  66.657  1.00  0.00     0.162 HD
BRANCH  52  55
HETATM   55  C   LIG     1     -10.577  18.178  67.625  1.00  0.00     0.024 C 
HETATM   56  C   LIG     1     -10.085  19.352  68.476  1.00  0.00    -0.051 C 
HETATM   57  C   LIG     1      -8.563  19.393  68.633  1.00  0.00    -0.040 C 
HETATM   58  H   LIG     1     -10.545  19.331  69.472  1.00  0.00     0.034 H 
HETATM   59  H   LIG     1     -10.414  20.285  68.002  1.00  0.00     0.034 H 
HETATM   60  C   LIG     1      -7.837  19.331  67.292  1.00  0.00     0.035 C 
HETATM   61  H   LIG     1      -8.236  18.560  69.266  1.00  0.00     0.036 H 
HETATM   62  H   LIG     1      -8.296  20.322  69.153  1.00  0.00     0.036 H 
HETATM   63  C   LIG     1      -8.272  18.124  66.468  1.00  0.00    -0.040 C 
HETATM   64  H   LIG     1      -6.754  19.288  67.452  1.00  0.00     0.082 H 
HETATM   65  C   LIG     1      -9.789  18.016  66.319  1.00  0.00    -0.051 C 
HETATM   66  H   LIG     1      -7.879  17.211  66.928  1.00  0.00     0.036 H 
HETATM   67  H   LIG     1      -7.837  18.190  65.463  1.00  0.00     0.036 H 
HETATM   68  H   LIG     1     -10.032  17.055  65.848  1.00  0.00     0.034 H 
HETATM   69  H   LIG     1     -10.125  18.794  65.622  1.00  0.00     0.034 H 
HETATM   70  H   LIG     1     -11.618  18.386  67.338  1.00  0.00     0.054 H 
BRANCH  60  71
HETATM   71  O   LIG     1      -8.112  20.516  66.549  1.00  0.00    -0.396 OA
HETATM   72  H   LIG     1      -7.619  20.452  65.713  1.00  0.00     0.210 HD
ENDBRANCH  60  71
ENDBRANCH  52  55
ENDBRANCH  48  51
ENDBRANCH  45  48
ENDBRANCH   4  45
TORSDOF 11
ENDMDL
MODEL 8
REMARK VINA RESULT:      -6.8      5.736      9.933
REMARK  11 active torsions:
REMARK  status: ('A' for Active; 'I' for Inactive)
REMARK    1  A    between atoms: N_1  and  S_2 
REMARK    2  A    between atoms: S_2  and  C_5 
REMARK    3  A    between atoms: C_8  and  C_9 
REMARK    4  A    between atoms: C_9  and  C_10 
REMARK    5  A    between atoms: C_14  and  N_15 
REMARK       I    between atoms: N_15  and  C_16 
REMARK       I    between atoms: C_16  and  N_18 
REMARK    6  A    between atoms: N_18  and  C_19 
REMARK    7  A    between atoms: C_22  and  C_23 
REMARK    8  A    between atoms: C_23  and  C_24 
REMARK    9  A    between atoms: C_24  and  N_25 
REMARK       I    between atoms: N_25  and  C_26 
REMARK   10  A    between atoms: C_26  and  C_28 
REMARK   11  A    between atoms: C_31  and  O_32 
ROOT
HETATM    1  C   LIG     1     -11.764   8.491  72.147  1.00  0.00     0.034 A 
HETATM    2  C   LIG     1     -12.882   9.280  72.382  1.00  0.00    -0.059 A 
HETATM    3  C   LIG     1     -13.071  10.438  71.630  1.00  0.00    -0.057 A 
HETATM    4  C   LIG     1     -12.136  10.764  70.648  1.00  0.00     0.035 A 
HETATM    5  N   LIG     1     -11.052   9.990  70.400  1.00  0.00    -0.264 NA
HETATM    6  C   LIG     1     -10.878   8.885  71.154  1.00  0.00     0.023 A 
HETATM    7  H   LIG     1     -13.589   9.015  73.163  1.00  0.00     0.086 H 
HETATM    8  H   LIG     1     -13.929  11.074  71.819  1.00  0.00     0.086 H 
HETATM    9  H   LIG     1      -9.980   8.315  70.930  1.00  0.00     0.117 H 
ENDROOT
BRANCH   1  10
HETATM   10  N   LIG     1     -11.599   7.312  72.902  1.00  0.00    -0.209 NA
HETATM   11  C   LIG     1     -10.390   7.081  73.550  1.00  0.00     0.303 C 
HETATM   12  N   LIG     1     -10.415   5.857  74.190  1.00  0.00    -0.313 N 
HETATM   13  O   LIG     1      -9.470   7.900  73.554  1.00  0.00    -0.253 OA
HETATM   14  H   LIG     1     -11.322   5.416  74.256  1.00  0.00     0.170 HD
HETATM   15  H   LIG     1     -11.861   6.485  72.379  1.00  0.00     0.138 HD
BRANCH  12  16
HETATM   16  C   LIG     1      -9.406   5.317  75.020  1.00  0.00     0.036 C 
HETATM   17  C   LIG     1      -8.842   4.063  74.789  1.00  0.00    -0.057 C 
HETATM   18  C   LIG     1      -7.720   3.663  75.501  1.00  0.00    -0.080 C 
HETATM   19  H   LIG     1      -9.221   3.383  74.034  1.00  0.00     0.086 H 
HETATM   20  C   LIG     1      -7.190   4.493  76.483  1.00  0.00    -0.076 C 
HETATM   21  H   LIG     1      -7.261   2.701  75.287  1.00  0.00     0.083 H 
HETATM   22  C   LIG     1      -7.864   5.651  76.897  1.00  0.00    -0.052 C 
HETATM   23  H   LIG     1      -6.276   4.176  76.980  1.00  0.00     0.084 H 
HETATM   24  C   LIG     1      -8.938   6.090  76.101  1.00  0.00    -0.051 C 
HETATM   25  H   LIG     1      -9.408   7.045  76.324  1.00  0.00     0.087 H 
BRANCH  22  26
HETATM   26  C   LIG     1      -7.429   6.436  78.131  1.00  0.00    -0.017 C 
HETATM   27  H   LIG     1      -8.320   6.555  78.763  1.00  0.00     0.047 H 
HETATM   28  H   LIG     1      -6.704   5.837  78.698  1.00  0.00     0.047 H 
BRANCH  26  29
HETATM   29  C   LIG     1      -6.795   7.821  77.927  1.00  0.00    -0.054 A 
HETATM   30  C   LIG     1      -7.134   8.679  76.870  1.00  0.00    -0.075 A 
HETATM   31  C   LIG     1      -6.652   9.988  76.801  1.00  0.00    -0.060 A 
HETATM   32  H   LIG     1      -7.813   8.360  76.084  1.00  0.00     0.084 H 
HETATM   33  C   LIG     1      -5.717  10.426  77.735  1.00  0.00     0.074 A 
HETATM   34  H   LIG     1      -7.037  10.628  76.012  1.00  0.00     0.085 H 
HETATM   35  C   LIG     1      -5.276   9.565  78.735  1.00  0.00    -0.060 A 
HETATM   36  C   LIG     1      -5.821   8.278  78.834  1.00  0.00    -0.075 A 
HETATM   37  H   LIG     1      -4.527   9.902  79.443  1.00  0.00     0.085 H 
HETATM   38  H   LIG     1      -5.477   7.623  79.630  1.00  0.00     0.084 H 
BRANCH  33  39
HETATM   39  S   LIG     1      -5.073  12.072  77.650  1.00  0.00     0.239 S 
HETATM   40  O   LIG     1      -3.994  12.069  76.687  1.00  0.00    -0.206 OA
HETATM   41  O   LIG     1      -4.884  12.574  78.994  1.00  0.00    -0.206 OA
BRANCH  39  42
HETATM   42  N   LIG     1      -6.375  12.936  77.002  1.00  0.00    -0.225 NA
HETATM   43  H   LIG     1      -6.996  13.368  77.692  1.00  0.00     0.136 HD
HETATM   44  H   LIG     1      -6.887  12.372  76.315  1.00  0.00     0.136 HD
ENDBRANCH  39  42
ENDBRANCH  33  39
ENDBRANCH  26  29
ENDBRANCH  22  26
ENDBRANCH  12  16
ENDBRANCH   1  10
BRANCH   4  45
HETATM   45  C   LIG     1     -12.306  12.025  69.836  1.00  0.00    -0.010 C 
HETATM   46  H   LIG     1     -12.139  12.889  70.491  1.00  0.00     0.044 H 
HETATM   47  H   LIG     1     -13.343  12.084  69.481  1.00  0.00     0.044 H 
BRANCH  45  48
HETATM   48  C   LIG     1     -11.348  12.102  68.644  1.00  0.00     0.000 C 
HETATM   49  H   LIG     1     -11.910  12.151  67.702  1.00  0.00     0.064 H 
HETATM   50  H   LIG     1     -10.705  11.215  68.600  1.00  0.00     0.064 H 
BRANCH  48  51
HETATM   51  N   LIG     1     -10.476  13.262  68.700  1.00  0.00    -0.360 N 
HETATM   52  C   LIG     1      -9.880  13.752  67.551  1.00  0.00     0.221 C 
HETATM   53  O   LIG     1     -10.028  13.242  66.447  1.00  0.00    -0.273 OA
HETATM   54  H   LIG     1     -10.134  13.579  69.597  1.00  0.00     0.162 HD
BRANCH  52  55
HETATM   55  C   LIG     1      -8.998  14.975  67.802  1.00  0.00     0.024 C 
HETATM   56  C   LIG     1      -8.790  15.784  66.519  1.00  0.00    -0.051 C 
HETATM   57  C   LIG     1      -9.970  16.699  66.180  1.00  0.00    -0.040 C 
HETATM   58  H   LIG     1      -8.598  15.120  65.666  1.00  0.00     0.034 H 
HETATM   59  H   LIG     1      -7.891  16.401  66.640  1.00  0.00     0.034 H 
HETATM   60  C   LIG     1     -10.367  17.595  67.350  1.00  0.00     0.035 C 
HETATM   61  H   LIG     1     -10.830  16.092  65.875  1.00  0.00     0.036 H 
HETATM   62  H   LIG     1      -9.687  17.320  65.321  1.00  0.00     0.036 H 
HETATM   63  C   LIG     1     -10.643  16.789  68.613  1.00  0.00    -0.040 C 
HETATM   64  H   LIG     1     -11.257  18.179  67.091  1.00  0.00     0.082 H 
HETATM   65  C   LIG     1      -9.510  15.827  68.970  1.00  0.00    -0.051 C 
HETATM   66  H   LIG     1     -11.577  16.230  68.490  1.00  0.00     0.036 H 
HETATM   67  H   LIG     1     -10.787  17.471  69.461  1.00  0.00     0.036 H 
HETATM   68  H   LIG     1      -9.838  15.181  69.794  1.00  0.00     0.034 H 
HETATM   69  H   LIG     1      -8.667  16.414  69.356  1.00  0.00     0.034 H 
HETATM   70  H   LIG     1      -8.020  14.579  68.110  1.00  0.00     0.054 H 
BRANCH  60  71
HETATM   71  O   LIG     1      -9.315  18.520  67.617  1.00  0.00    -0.396 OA
HETATM   72  H   LIG     1      -9.124  18.987  66.785  1.00  0.00     0.210 HD
ENDBRANCH  60  71
ENDBRANCH  52  55
ENDBRANCH  48  51
ENDBRANCH  45  48
ENDBRANCH   4  45
TORSDOF 11
ENDMDL
MODEL 9
REMARK VINA RESULT:      -6.4      6.215     10.779
REMARK  11 active torsions:
REMARK  status: ('A' for Active; 'I' for Inactive)
REMARK    1  A    between atoms: N_1  and  S_2 
REMARK    2  A    between atoms: S_2  and  C_5 
REMARK    3  A    between atoms: C_8  and  C_9 
REMARK    4  A    between atoms: C_9  and  C_10 
REMARK    5  A    between atoms: C_14  and  N_15 
REMARK       I    between atoms: N_15  and  C_16 
REMARK       I    between atoms: C_16  and  N_18 
REMARK    6  A    between atoms: N_18  and  C_19 
REMARK    7  A    between atoms: C_22  and  C_23 
REMARK    8  A    between atoms: C_23  and  C_24 
REMARK    9  A    between atoms: C_24  and  N_25 
REMARK       I    between atoms: N_25  and  C_26 
REMARK   10  A    between atoms: C_26  and  C_28 
REMARK   11  A    between atoms: C_31  and  O_32 
ROOT
HETATM    1  C   LIG     1     -11.564   8.115  72.500  1.00  0.00     0.034 A 
HETATM    2  C   LIG     1     -12.871   8.585  72.493  1.00  0.00    -0.059 A 
HETATM    3  C   LIG     1     -13.190   9.702  71.724  1.00  0.00    -0.057 A 
HETATM    4  C   LIG     1     -12.189  10.309  70.968  1.00  0.00     0.035 A 
HETATM    5  N   LIG     1     -10.915   9.847  70.955  1.00  0.00    -0.264 NA
HETATM    6  C   LIG     1     -10.623   8.776  71.724  1.00  0.00     0.023 A 
HETATM    7  H   LIG     1     -13.632   8.105  73.102  1.00  0.00     0.086 H 
HETATM    8  H   LIG     1     -14.203  10.091  71.727  1.00  0.00     0.086 H 
HETATM    9  H   LIG     1      -9.583   8.463  71.695  1.00  0.00     0.117 H 
ENDROOT
BRANCH   1  10
HETATM   10  N   LIG     1     -11.262   6.971  73.267  1.00  0.00    -0.209 NA
HETATM   11  C   LIG     1     -10.040   6.896  73.927  1.00  0.00     0.303 C 
HETATM   12  N   LIG     1      -9.920   5.684  74.578  1.00  0.00    -0.313 N 
HETATM   13  O   LIG     1      -9.228   7.822  73.932  1.00  0.00    -0.253 OA
HETATM   14  H   LIG     1     -10.766   5.135  74.640  1.00  0.00     0.170 HD
HETATM   15  H   LIG     1     -11.415   6.114  72.748  1.00  0.00     0.138 HD
BRANCH  12  16
HETATM   16  C   LIG     1      -8.860   5.278  75.421  1.00  0.00     0.036 C 
HETATM   17  C   LIG     1      -8.373   3.972  75.432  1.00  0.00    -0.057 C 
HETATM   18  C   LIG     1      -7.205   3.670  76.120  1.00  0.00    -0.080 C 
HETATM   19  H   LIG     1      -8.850   3.167  74.884  1.00  0.00     0.086 H 
HETATM   20  C   LIG     1      -6.550   4.662  76.841  1.00  0.00    -0.076 C 
HETATM   21  H   LIG     1      -6.809   2.658  76.090  1.00  0.00     0.083 H 
HETATM   22  C   LIG     1      -7.133   5.922  77.039  1.00  0.00    -0.052 C 
HETATM   23  H   LIG     1      -5.608   4.407  77.319  1.00  0.00     0.084 H 
HETATM   24  C   LIG     1      -8.260   6.240  76.257  1.00  0.00    -0.051 C 
HETATM   25  H   LIG     1      -8.666   7.248  76.297  1.00  0.00     0.087 H 
BRANCH  22  26
HETATM   26  C   LIG     1      -6.551   6.932  78.024  1.00  0.00    -0.017 C 
HETATM   27  H   LIG     1      -7.344   7.165  78.747  1.00  0.00     0.047 H 
HETATM   28  H   LIG     1      -5.731   6.456  78.578  1.00  0.00     0.047 H 
BRANCH  26  29
HETATM   29  C   LIG     1      -6.001   8.256  77.469  1.00  0.00    -0.054 A 
HETATM   30  C   LIG     1      -5.879   9.425  78.235  1.00  0.00    -0.075 A 
HETATM   31  C   LIG     1      -5.235  10.563  77.745  1.00  0.00    -0.060 A 
HETATM   32  H   LIG     1      -6.257   9.470  79.254  1.00  0.00     0.084 H 
HETATM   33  C   LIG     1      -4.804  10.591  76.422  1.00  0.00     0.074 A 
HETATM   34  H   LIG     1      -5.087  11.394  78.429  1.00  0.00     0.085 H 
HETATM   35  C   LIG     1      -5.006   9.487  75.600  1.00  0.00    -0.060 A 
HETATM   36  C   LIG     1      -5.589   8.326  76.126  1.00  0.00    -0.075 A 
HETATM   37  H   LIG     1      -4.693   9.525  74.562  1.00  0.00     0.085 H 
HETATM   38  H   LIG     1      -5.726   7.467  75.475  1.00  0.00     0.084 H 
BRANCH  33  39
HETATM   39  S   LIG     1      -4.010  12.033  75.772  1.00  0.00     0.239 S 
HETATM   40  O   LIG     1      -4.989  12.755  74.990  1.00  0.00    -0.206 OA
HETATM   41  O   LIG     1      -2.729  11.655  75.215  1.00  0.00    -0.206 OA
BRANCH  39  42
HETATM   42  N   LIG     1      -3.672  12.921  77.172  1.00  0.00    -0.225 NA
HETATM   43  H   LIG     1      -3.098  13.755  77.029  1.00  0.00     0.136 HD
HETATM   44  H   LIG     1      -3.304  12.315  77.914  1.00  0.00     0.136 HD
ENDBRANCH  39  42
ENDBRANCH  33  39
ENDBRANCH  26  29
ENDBRANCH  22  26
ENDBRANCH  12  16
ENDBRANCH   1  10
BRANCH   4  45
HETATM   45  C   LIG     1     -12.504  11.535  70.145  1.00  0.00    -0.010 C 
HETATM   46  H   LIG     1     -13.047  12.250  70.775  1.00  0.00     0.044 H 
HETATM   47  H   LIG     1     -13.177  11.250  69.326  1.00  0.00     0.044 H 
BRANCH  45  48
HETATM   48  C   LIG     1     -11.254  12.210  69.574  1.00  0.00     0.000 C 
HETATM   49  H   LIG     1     -10.531  11.456  69.236  1.00  0.00     0.064 H 
HETATM   50  H   LIG     1     -10.760  12.826  70.334  1.00  0.00     0.064 H 
BRANCH  48  51
HETATM   51  N   LIG     1     -11.551  13.075  68.446  1.00  0.00    -0.360 N 
HETATM   52  C   LIG     1     -10.763  13.047  67.310  1.00  0.00     0.221 C 
HETATM   53  O   LIG     1      -9.780  12.325  67.192  1.00  0.00    -0.273 OA
HETATM   54  H   LIG     1     -12.195  13.845  68.571  1.00  0.00     0.162 HD
BRANCH  52  55
HETATM   55  C   LIG     1     -11.225  14.024  66.228  1.00  0.00     0.024 C 
HETATM   56  C   LIG     1     -10.282  14.006  65.022  1.00  0.00    -0.051 C 
HETATM   57  C   LIG     1     -10.531  12.831  64.073  1.00  0.00    -0.040 C 
HETATM   58  H   LIG     1      -9.234  13.985  65.347  1.00  0.00     0.034 H 
HETATM   59  H   LIG     1     -10.415  14.942  64.464  1.00  0.00     0.034 H 
HETATM   60  C   LIG     1     -11.992  12.728  63.644  1.00  0.00     0.035 C 
HETATM   61  H   LIG     1     -10.225  11.896  64.557  1.00  0.00     0.036 H 
HETATM   62  H   LIG     1      -9.896  12.964  63.188  1.00  0.00     0.036 H 
HETATM   63  C   LIG     1     -12.932  12.675  64.841  1.00  0.00    -0.040 C 
HETATM   64  H   LIG     1     -12.141  11.835  63.027  1.00  0.00     0.082 H 
HETATM   65  C   LIG     1     -12.693  13.806  65.842  1.00  0.00    -0.051 C 
HETATM   66  H   LIG     1     -12.824  11.708  65.344  1.00  0.00     0.036 H 
HETATM   67  H   LIG     1     -13.972  12.743  64.496  1.00  0.00     0.036 H 
HETATM   68  H   LIG     1     -13.297  13.621  66.739  1.00  0.00     0.034 H 
HETATM   69  H   LIG     1     -13.070  14.739  65.405  1.00  0.00     0.034 H 
HETATM   70  H   LIG     1     -11.167  15.022  66.684  1.00  0.00     0.054 H 
BRANCH  60  71
HETATM   71  O   LIG     1     -12.331  13.860  62.844  1.00  0.00    -0.396 OA
HETATM   72  H   LIG     1     -11.688  13.899  62.115  1.00  0.00     0.210 HD
ENDBRANCH  60  71
ENDBRANCH  52  55
ENDBRANCH  48  51
ENDBRANCH  45  48
ENDBRANCH   4  45
TORSDOF 11
ENDMDL
MODEL 10
REMARK VINA RESULT:      -6.1      5.003     10.044
REMARK  11 active torsions:
REMARK  status: ('A' for Active; 'I' for Inactive)
REMARK    1  A    between atoms: N_1  and  S_2 
REMARK    2  A    between atoms: S_2  and  C_5 
REMARK    3  A    between atoms: C_8  and  C_9 
REMARK    4  A    between atoms: C_9  and  C_10 
REMARK    5  A    between atoms: C_14  and  N_15 
REMARK       I    between atoms: N_15  and  C_16 
REMARK       I    between atoms: C_16  and  N_18 
REMARK    6  A    between atoms: N_18  and  C_19 
REMARK    7  A    between atoms: C_22  and  C_23 
REMARK    8  A    between atoms: C_23  and  C_24 
REMARK    9  A    between atoms: C_24  and  N_25 
REMARK       I    between atoms: N_25  and  C_26 
REMARK   10  A    between atoms: C_26  and  C_28 
REMARK   11  A    between atoms: C_31  and  O_32 
ROOT
HETATM    1  C   LIG     1     -11.518   8.206  72.373  1.00  0.00     0.034 A 
HETATM    2  C   LIG     1     -12.812   8.709  72.392  1.00  0.00    -0.059 A 
HETATM    3  C   LIG     1     -13.109   9.856  71.657  1.00  0.00    -0.057 A 
HETATM    4  C   LIG     1     -12.098  10.458  70.908  1.00  0.00     0.035 A 
HETATM    5  N   LIG     1     -10.837   9.963  70.871  1.00  0.00    -0.264 NA
HETATM    6  C   LIG     1     -10.567   8.864  71.607  1.00  0.00     0.023 A 
HETATM    7  H   LIG     1     -13.580   8.233  72.994  1.00  0.00     0.086 H 
HETATM    8  H   LIG     1     -14.111  10.270  71.681  1.00  0.00     0.086 H 
HETATM    9  H   LIG     1      -9.535   8.526  71.559  1.00  0.00     0.117 H 
ENDROOT
BRANCH   1  10
HETATM   10  N   LIG     1     -11.239   7.034  73.105  1.00  0.00    -0.209 NA
HETATM   11  C   LIG     1     -11.187   5.812  72.443  1.00  0.00     0.303 C 
HETATM   12  N   LIG     1     -10.950   4.789  73.339  1.00  0.00    -0.313 N 
HETATM   13  O   LIG     1     -11.305   5.712  71.220  1.00  0.00    -0.253 OA
HETATM   14  H   LIG     1     -10.672   5.077  74.268  1.00  0.00     0.170 HD
HETATM   15  H   LIG     1     -11.832   6.946  73.922  1.00  0.00     0.138 HD
BRANCH  12  16
HETATM   16  C   LIG     1     -10.748   3.425  73.031  1.00  0.00     0.036 C 
HETATM   17  C   LIG     1     -11.519   2.409  73.595  1.00  0.00    -0.057 C 
HETATM   18  C   LIG     1     -11.423   1.111  73.112  1.00  0.00    -0.080 C 
HETATM   19  H   LIG     1     -12.238   2.593  74.386  1.00  0.00     0.086 H 
HETATM   20  C   LIG     1     -10.517   0.815  72.099  1.00  0.00    -0.076 C 
HETATM   21  H   LIG     1     -12.057   0.333  73.529  1.00  0.00     0.083 H 
HETATM   22  C   LIG     1      -9.570   1.757  71.672  1.00  0.00    -0.052 C 
HETATM   23  H   LIG     1     -10.509  -0.198  71.703  1.00  0.00     0.084 H 
HETATM   24  C   LIG     1      -9.748   3.087  72.098  1.00  0.00    -0.051 C 
HETATM   25  H   LIG     1      -9.104   3.864  71.693  1.00  0.00     0.087 H 
BRANCH  22  26
HETATM   26  C   LIG     1      -8.419   1.377  70.745  1.00  0.00    -0.017 C 
HETATM   27  H   LIG     1      -7.492   1.515  71.316  1.00  0.00     0.047 H 
HETATM   28  H   LIG     1      -8.497   0.309  70.501  1.00  0.00     0.047 H 
BRANCH  26  29
HETATM   29  C   LIG     1      -8.280   2.127  69.411  1.00  0.00    -0.054 A 
HETATM   30  C   LIG     1      -7.097   2.758  68.998  1.00  0.00    -0.075 A 
HETATM   31  C   LIG     1      -6.959   3.298  67.717  1.00  0.00    -0.060 A 
HETATM   32  H   LIG     1      -6.234   2.819  69.656  1.00  0.00     0.084 H 
HETATM   33  C   LIG     1      -8.056   3.322  66.860  1.00  0.00     0.074 A 
HETATM   34  H   LIG     1      -5.982   3.678  67.431  1.00  0.00     0.085 H 
HETATM   35  C   LIG     1      -9.277   2.802  67.278  1.00  0.00    -0.060 A 
HETATM   36  C   LIG     1      -9.382   2.200  68.539  1.00  0.00    -0.075 A 
HETATM   37  H   LIG     1     -10.136   2.848  66.617  1.00  0.00     0.085 H 
HETATM   38  H   LIG     1     -10.338   1.784  68.844  1.00  0.00     0.084 H 
BRANCH  33  39
HETATM   39  S   LIG     1      -7.911   4.025  65.243  1.00  0.00     0.239 S 
HETATM   40  O   LIG     1      -8.772   5.186  65.193  1.00  0.00    -0.206 OA
HETATM   41  O   LIG     1      -8.011   2.968  64.259  1.00  0.00    -0.206 OA
BRANCH  39  42
HETATM   42  N   LIG     1      -6.300   4.543  65.218  1.00  0.00    -0.225 NA
HETATM   43  H   LIG     1      -5.957   4.850  64.304  1.00  0.00     0.136 HD
HETATM   44  H   LIG     1      -5.683   3.849  65.655  1.00  0.00     0.136 HD
ENDBRANCH  39  42
ENDBRANCH  33  39
ENDBRANCH  26  29
ENDBRANCH  22  26
ENDBRANCH  12  16
ENDBRANCH   1  10
BRANCH   4  45
HETATM   45  C   LIG     1     -12.389  11.714  70.123  1.00  0.00    -0.010 C 
HETATM   46  H   LIG     1     -12.211  12.581  70.770  1.00  0.00     0.044 H 
HETATM   47  H   LIG     1     -13.453  11.725  69.851  1.00  0.00     0.044 H 
BRANCH  45  48
HETATM   48  C   LIG     1     -11.533  11.840  68.860  1.00  0.00     0.000 C 
HETATM   49  H   LIG     1     -12.167  12.015  67.982  1.00  0.00     0.064 H 
HETATM   50  H   LIG     1     -10.963  10.922  68.679  1.00  0.00     0.064 H 
BRANCH  48  51
HETATM   51  N   LIG     1     -10.577  12.931  68.939  1.00  0.00    -0.360 N 
HETATM   52  C   LIG     1     -10.211  13.631  67.804  1.00  0.00     0.221 C 
HETATM   53  O   LIG     1     -10.642  13.372  66.686  1.00  0.00    -0.273 OA
HETATM   54  H   LIG     1     -10.019  13.038  69.776  1.00  0.00     0.162 HD
BRANCH  52  55
HETATM   55  C   LIG     1      -9.196  14.741  68.078  1.00  0.00     0.024 C 
HETATM   56  C   LIG     1      -9.021  15.650  66.858  1.00  0.00    -0.051 C 
HETATM   57  C   LIG     1     -10.132  16.694  66.715  1.00  0.00    -0.040 C 
HETATM   58  H   LIG     1      -8.968  15.058  65.936  1.00  0.00     0.034 H 
HETATM   59  H   LIG     1      -8.060  16.171  66.949  1.00  0.00     0.034 H 
HETATM   60  C   LIG     1     -10.338  17.504  67.992  1.00  0.00     0.035 C 
HETATM   61  H   LIG     1     -11.069  16.199  66.439  1.00  0.00     0.036 H 
HETATM   62  H   LIG     1      -9.864  17.368  65.891  1.00  0.00     0.036 H 
HETATM   63  C   LIG     1     -10.582  16.606  69.199  1.00  0.00    -0.040 C 
HETATM   64  H   LIG     1     -11.187  18.187  67.871  1.00  0.00     0.082 H 
HETATM   65  C   LIG     1      -9.521  15.518  69.360  1.00  0.00    -0.051 C 
HETATM   66  H   LIG     1     -11.574  16.147  69.114  1.00  0.00     0.036 H 
HETATM   67  H   LIG     1     -10.587  17.213  70.113  1.00  0.00     0.036 H 
HETATM   68  H   LIG     1      -9.839  14.826  70.151  1.00  0.00     0.034 H 
HETATM   69  H   LIG     1      -8.596  15.987  69.716  1.00  0.00     0.034 H 
HETATM   70  H   LIG     1      -8.238  14.232  68.256  1.00  0.00     0.054 H 
BRANCH  60  71
HETATM   71  O   LIG     1      -9.183  18.302  68.240  1.00  0.00    -0.396 OA
HETATM   72  H   LIG     1      -9.006  18.261  69.196  1.00  0.00     0.210 HD
ENDBRANCH  60  71
ENDBRANCH  52  55
ENDBRANCH  48  51
ENDBRANCH  45  48
ENDBRANCH   4  45
TORSDOF 11
ENDMDL
