MODEL 1
REMARK VINA RESULT:      -8.8      0.000      0.000
REMARK  11 active torsions:
REMARK  status: ('A' for Active; 'I' for Inactive)
REMARK    1  A    between atoms: N_1  and  S_2 
REMARK    2  A    between atoms: S_2  and  C_5 
REMARK    3  A    between atoms: C_8  and  C_9 
REMARK    4  A    between atoms: C_9  and  C_10 
REMARK    5  A    between atoms: C_14  and  N_15 
REMARK       I    between atoms: N_15  and  C_16 
REMARK       I    between atoms: C_16  and  N_18 
REMARK    6  A    between atoms: N_18  and  C_19 
REMARK    7  A    between atoms: C_20  and  C_21 
REMARK    8  A    between atoms: C_21  and  C_22 
REMARK    9  A    between atoms: C_22  and  N_23 
REMARK       I    between atoms: N_23  and  C_24 
REMARK   10  A    between atoms: C_24  and  C_26 
REMARK   11  A    between atoms: C_29  and  O_30 
ROOT
HETATM    1  C   LIG     1     -10.501  13.244  64.924  1.00  0.00     0.057 C 
HETATM    2  C   LIG     1     -10.378  12.348  65.927  1.00  0.00    -0.041 C 
HETATM    3  C   LIG     1     -10.143  10.882  65.598  1.00  0.00     0.034 C 
HETATM    4  C   LIG     1      -9.490  10.714  64.240  1.00  0.00     0.246 C 
HETATM    5  O   LIG     1      -8.586   9.898  64.083  1.00  0.00    -0.271 OA
HETATM    6  N   LIG     1     -10.031  11.464  63.228  1.00  0.00    -0.224 NA
HETATM    7  C   LIG     1     -10.505  12.626  63.557  1.00  0.00     0.032 C 
HETATM    8  H   LIG     1     -11.077  10.318  65.641  1.00  0.00     0.054 H 
HETATM    9  H   LIG     1      -9.438  10.418  66.292  1.00  0.00     0.054 H 
HETATM   10  H   LIG     1     -11.022  13.189  62.768  1.00  0.00     0.118 H 
ENDROOT
BRANCH   1  11
HETATM   11  N   LIG     1     -10.693  14.595  65.143  1.00  0.00    -0.307 N 
HETATM   12  C   LIG     1      -9.829  15.517  65.727  1.00  0.00     0.325 C 
HETATM   13  N   LIG     1     -10.442  16.766  65.778  1.00  0.00    -0.309 N 
HETATM   14  O   LIG     1      -8.716  15.235  66.148  1.00  0.00    -0.247 OA
HETATM   15  H   LIG     1     -11.270  16.887  65.216  1.00  0.00     0.170 HD
HETATM   16  H   LIG     1     -11.615  14.957  64.970  1.00  0.00     0.170 HD
BRANCH  13  17
HETATM   17  C   LIG     1      -9.958  17.969  66.336  1.00  0.00     0.036 A 
HETATM   18  C   LIG     1     -10.706  18.803  67.161  1.00  0.00    -0.057 A 
HETATM   19  C   LIG     1     -10.109  19.918  67.753  1.00  0.00    -0.080 A 
HETATM   20  H   LIG     1     -11.745  18.590  67.394  1.00  0.00     0.086 H 
HETATM   21  C   LIG     1      -8.771  20.226  67.500  1.00  0.00    -0.076 A 
HETATM   22  H   LIG     1     -10.688  20.536  68.437  1.00  0.00     0.083 H 
HETATM   23  C   LIG     1      -8.007  19.422  66.646  1.00  0.00    -0.052 A 
HETATM   24  H   LIG     1      -8.327  21.092  67.987  1.00  0.00     0.084 H 
HETATM   25  C   LIG     1      -8.615  18.296  66.069  1.00  0.00    -0.051 A 
HETATM   26  H   LIG     1      -8.023  17.670  65.405  1.00  0.00     0.087 H 
BRANCH  23  27
HETATM   27  C   LIG     1      -6.544  19.726  66.391  1.00  0.00    -0.017 C 
HETATM   28  H   LIG     1      -6.291  20.670  66.895  1.00  0.00     0.047 H 
HETATM   29  H   LIG     1      -5.911  18.970  66.873  1.00  0.00     0.047 H 
BRANCH  27  30
HETATM   30  C   LIG     1      -6.170  19.810  64.923  1.00  0.00    -0.054 A 
HETATM   31  C   LIG     1      -5.445  18.773  64.313  1.00  0.00    -0.075 A 
HETATM   32  C   LIG     1      -5.093  18.842  62.964  1.00  0.00    -0.060 A 
HETATM   33  H   LIG     1      -5.152  17.895  64.884  1.00  0.00     0.084 H 
HETATM   34  C   LIG     1      -5.453  19.962  62.216  1.00  0.00     0.074 A 
HETATM   35  H   LIG     1      -4.546  18.017  62.510  1.00  0.00     0.085 H 
HETATM   36  C   LIG     1      -6.165  21.011  62.805  1.00  0.00    -0.060 A 
HETATM   37  C   LIG     1      -6.518  20.934  64.157  1.00  0.00    -0.075 A 
HETATM   38  H   LIG     1      -6.448  21.882  62.220  1.00  0.00     0.085 H 
HETATM   39  H   LIG     1      -7.065  21.760  64.606  1.00  0.00     0.084 H 
BRANCH  34  40
HETATM   40  S   LIG     1      -5.032  20.055  60.499  1.00  0.00     0.239 S 
HETATM   41  O   LIG     1      -4.515  18.788  60.080  1.00  0.00    -0.206 OA
HETATM   42  O   LIG     1      -4.342  21.311  60.242  1.00  0.00    -0.206 OA
BRANCH  40  43
HETATM   43  N   LIG     1      -6.532  20.230  59.764  1.00  0.00    -0.225 NA
HETATM   44  H   LIG     1      -6.413  20.226  58.751  1.00  0.00     0.136 HD
HETATM   45  H   LIG     1      -6.996  21.066  60.120  1.00  0.00     0.136 HD
ENDBRANCH  40  43
ENDBRANCH  34  40
ENDBRANCH  27  30
ENDBRANCH  23  27
ENDBRANCH  13  17
ENDBRANCH   1  11
BRANCH   2  46
HETATM   46  C   LIG     1     -10.483  12.691  67.404  1.00  0.00    -0.027 C 
HETATM   47  H   LIG     1     -10.117  13.715  67.544  1.00  0.00     0.042 H 
HETATM   48  H   LIG     1      -9.837  12.032  67.995  1.00  0.00     0.042 H 
BRANCH  46  49
HETATM   49  C   LIG     1     -11.893  12.583  67.996  1.00  0.00    -0.001 C 
HETATM   50  H   LIG     1     -11.953  11.764  68.723  1.00  0.00     0.064 H 
HETATM   51  H   LIG     1     -12.612  12.343  67.208  1.00  0.00     0.064 H 
BRANCH  49  52
HETATM   52  N   LIG     1     -12.287  13.821  68.649  1.00  0.00    -0.360 N 
HETATM   53  C   LIG     1     -12.412  13.894  70.014  1.00  0.00     0.221 C 
HETATM   54  O   LIG     1     -12.289  12.903  70.727  1.00  0.00    -0.273 OA
HETATM   55  H   LIG     1     -12.256  14.687  68.125  1.00  0.00     0.162 HD
BRANCH  53  56
HETATM   56  C   LIG     1     -12.811  15.274  70.551  1.00  0.00     0.024 C 
HETATM   57  C   LIG     1     -14.138  15.184  71.322  1.00  0.00    -0.051 C 
HETATM   58  C   LIG     1     -13.982  14.537  72.703  1.00  0.00    -0.040 C 
HETATM   59  H   LIG     1     -14.877  14.616  70.744  1.00  0.00     0.034 H 
HETATM   60  H   LIG     1     -14.554  16.192  71.439  1.00  0.00     0.034 H 
HETATM   61  C   LIG     1     -12.872  15.173  73.538  1.00  0.00     0.035 C 
HETATM   62  H   LIG     1     -13.771  13.467  72.586  1.00  0.00     0.036 H 
HETATM   63  H   LIG     1     -14.939  14.616  73.233  1.00  0.00     0.036 H 
HETATM   64  C   LIG     1     -11.555  15.283  72.768  1.00  0.00    -0.040 C 
HETATM   65  H   LIG     1     -12.706  14.567  74.436  1.00  0.00     0.082 H 
HETATM   66  C   LIG     1     -11.725  15.948  71.402  1.00  0.00    -0.051 C 
HETATM   67  H   LIG     1     -11.126  14.283  72.628  1.00  0.00     0.036 H 
HETATM   68  H   LIG     1     -10.833  15.867  73.351  1.00  0.00     0.036 H 
HETATM   69  H   LIG     1     -10.756  15.958  70.891  1.00  0.00     0.034 H 
HETATM   70  H   LIG     1     -11.992  17.003  71.547  1.00  0.00     0.034 H 
HETATM   71  H   LIG     1     -12.982  15.896  69.660  1.00  0.00     0.054 H 
BRANCH  61  72
HETATM   72  O   LIG     1     -13.287  16.462  73.994  1.00  0.00    -0.396 OA
HETATM   73  H   LIG     1     -13.472  16.400  74.945  1.00  0.00     0.210 HD
ENDBRANCH  61  72
ENDBRANCH  53  56
ENDBRANCH  49  52
ENDBRANCH  46  49
ENDBRANCH   2  46
TORSDOF 11
ENDMDL
MODEL 2
REMARK VINA RESULT:      -8.8      4.814     10.639
REMARK  11 active torsions:
REMARK  status: ('A' for Active; 'I' for Inactive)
REMARK    1  A    between atoms: N_1  and  S_2 
REMARK    2  A    between atoms: S_2  and  C_5 
REMARK    3  A    between atoms: C_8  and  C_9 
REMARK    4  A    between atoms: C_9  and  C_10 
REMARK    5  A    between atoms: C_14  and  N_15 
REMARK       I    between atoms: N_15  and  C_16 
REMARK       I    between atoms: C_16  and  N_18 
REMARK    6  A    between atoms: N_18  and  C_19 
REMARK    7  A    between atoms: C_20  and  C_21 
REMARK    8  A    between atoms: C_21  and  C_22 
REMARK    9  A    between atoms: C_22  and  N_23 
REMARK       I    between atoms: N_23  and  C_24 
REMARK   10  A    between atoms: C_24  and  C_26 
REMARK   11  A    between atoms: C_29  and  O_30 
ROOT
HETATM    1  C   LIG     1     -10.325  17.677  67.564  1.00  0.00     0.057 C 
HETATM    2  C   LIG     1      -9.011  17.467  67.329  1.00  0.00    -0.041 C 
HETATM    3  C   LIG     1      -8.137  18.625  66.873  1.00  0.00     0.034 C 
HETATM    4  C   LIG     1      -8.706  19.959  67.313  1.00  0.00     0.246 C 
HETATM    5  O   LIG     1      -7.967  20.835  67.753  1.00  0.00    -0.271 OA
HETATM    6  N   LIG     1     -10.052  20.123  67.108  1.00  0.00    -0.224 NA
HETATM    7  C   LIG     1     -10.788  19.060  67.216  1.00  0.00     0.032 C 
HETATM    8  H   LIG     1      -8.003  18.609  65.789  1.00  0.00     0.054 H 
HETATM    9  H   LIG     1      -7.148  18.592  67.335  1.00  0.00     0.054 H 
HETATM   10  H   LIG     1     -11.852  19.170  66.961  1.00  0.00     0.118 H 
ENDROOT
BRANCH   1  11
HETATM   11  N   LIG     1     -11.178  16.682  68.001  1.00  0.00    -0.307 N 
HETATM   12  C   LIG     1     -11.166  15.990  69.209  1.00  0.00     0.325 C 
HETATM   13  N   LIG     1     -12.190  15.046  69.218  1.00  0.00    -0.309 N 
HETATM   14  O   LIG     1     -10.349  16.184  70.097  1.00  0.00    -0.247 OA
HETATM   15  H   LIG     1     -12.898  15.140  68.506  1.00  0.00     0.170 HD
HETATM   16  H   LIG     1     -11.830  16.314  67.330  1.00  0.00     0.170 HD
BRANCH  13  17
HETATM   17  C   LIG     1     -12.508  14.092  70.208  1.00  0.00     0.036 A 
HETATM   18  C   LIG     1     -12.994  14.412  71.473  1.00  0.00    -0.057 A 
HETATM   19  C   LIG     1     -13.382  13.396  72.350  1.00  0.00    -0.080 A 
HETATM   20  H   LIG     1     -13.121  15.442  71.790  1.00  0.00     0.086 H 
HETATM   21  C   LIG     1     -13.256  12.055  71.983  1.00  0.00    -0.076 A 
HETATM   22  H   LIG     1     -13.808  13.657  73.316  1.00  0.00     0.083 H 
HETATM   23  C   LIG     1     -12.738  11.707  70.730  1.00  0.00    -0.052 A 
HETATM   24  H   LIG     1     -13.580  11.285  72.680  1.00  0.00     0.084 H 
HETATM   25  C   LIG     1     -12.365  12.737  69.853  1.00  0.00    -0.051 A 
HETATM   26  H   LIG     1     -11.961  12.469  68.879  1.00  0.00     0.087 H 
BRANCH  23  27
HETATM   27  C   LIG     1     -12.629  10.255  70.308  1.00  0.00    -0.017 C 
HETATM   28  H   LIG     1     -13.612   9.780  70.435  1.00  0.00     0.047 H 
HETATM   29  H   LIG     1     -12.420  10.190  69.232  1.00  0.00     0.047 H 
BRANCH  27  30
HETATM   30  C   LIG     1     -11.574   9.464  71.058  1.00  0.00    -0.054 A 
HETATM   31  C   LIG     1     -11.939   8.609  72.111  1.00  0.00    -0.075 A 
HETATM   32  C   LIG     1     -10.975   7.879  72.809  1.00  0.00    -0.060 A 
HETATM   33  H   LIG     1     -12.983   8.498  72.394  1.00  0.00     0.084 H 
HETATM   34  C   LIG     1      -9.630   8.012  72.465  1.00  0.00     0.074 A 
HETATM   35  H   LIG     1     -11.285   7.211  73.609  1.00  0.00     0.085 H 
HETATM   36  C   LIG     1      -9.242   8.865  71.428  1.00  0.00    -0.060 A 
HETATM   37  C   LIG     1     -10.214   9.591  70.730  1.00  0.00    -0.075 A 
HETATM   38  H   LIG     1      -8.194   8.965  71.159  1.00  0.00     0.085 H 
HETATM   39  H   LIG     1      -9.899  10.258  69.930  1.00  0.00     0.084 H 
BRANCH  34  40
HETATM   40  S   LIG     1      -8.398   7.078  73.327  1.00  0.00     0.239 S 
HETATM   41  O   LIG     1      -7.111   7.406  72.793  1.00  0.00    -0.206 OA
HETATM   42  O   LIG     1      -8.859   5.706  73.484  1.00  0.00    -0.206 OA
BRANCH  40  43
HETATM   43  N   LIG     1      -8.458   7.732  74.873  1.00  0.00    -0.225 NA
HETATM   44  H   LIG     1      -7.509   7.841  75.230  1.00  0.00     0.136 HD
HETATM   45  H   LIG     1      -9.058   7.159  75.466  1.00  0.00     0.136 HD
ENDBRANCH  40  43
ENDBRANCH  34  40
ENDBRANCH  27  30
ENDBRANCH  23  27
ENDBRANCH  13  17
ENDBRANCH   1  11
BRANCH   2  46
HETATM   46  C   LIG     1      -8.318  16.121  67.463  1.00  0.00    -0.027 C 
HETATM   47  H   LIG     1      -8.793  15.572  68.286  1.00  0.00     0.042 H 
HETATM   48  H   LIG     1      -7.265  16.259  67.732  1.00  0.00     0.042 H 
BRANCH  46  49
HETATM   49  C   LIG     1      -8.347  15.248  66.204  1.00  0.00    -0.001 C 
HETATM   50  H   LIG     1      -7.512  14.537  66.198  1.00  0.00     0.064 H 
HETATM   51  H   LIG     1      -8.220  15.871  65.314  1.00  0.00     0.064 H 
BRANCH  49  52
HETATM   52  N   LIG     1      -9.595  14.508  66.102  1.00  0.00    -0.360 N 
HETATM   53  C   LIG     1      -9.705  13.233  66.598  1.00  0.00     0.221 C 
HETATM   54  O   LIG     1      -8.739  12.634  67.059  1.00  0.00    -0.273 OA
HETATM   55  H   LIG     1     -10.445  15.005  65.867  1.00  0.00     0.162 HD
BRANCH  53  56
HETATM   56  C   LIG     1     -11.091  12.597  66.435  1.00  0.00     0.024 C 
HETATM   57  C   LIG     1     -12.077  13.612  65.833  1.00  0.00    -0.051 C 
HETATM   58  C   LIG     1     -11.852  13.845  64.334  1.00  0.00    -0.040 C 
HETATM   59  H   LIG     1     -12.003  14.573  66.358  1.00  0.00     0.034 H 
HETATM   60  H   LIG     1     -13.101  13.257  65.994  1.00  0.00     0.034 H 
HETATM   61  C   LIG     1     -11.800  12.546  63.530  1.00  0.00     0.035 C 
HETATM   62  H   LIG     1     -10.916  14.396  64.184  1.00  0.00     0.036 H 
HETATM   63  H   LIG     1     -12.660  14.483  63.958  1.00  0.00     0.036 H 
HETATM   64  C   LIG     1     -10.835  11.526  64.137  1.00  0.00    -0.040 C 
HETATM   65  H   LIG     1     -11.478  12.771  62.507  1.00  0.00     0.082 H 
HETATM   66  C   LIG     1     -11.085  11.292  65.627  1.00  0.00    -0.051 C 
HETATM   67  H   LIG     1      -9.802  11.868  63.998  1.00  0.00     0.036 H 
HETATM   68  H   LIG     1     -10.934  10.568  63.613  1.00  0.00     0.036 H 
HETATM   69  H   LIG     1     -10.338  10.585  66.003  1.00  0.00     0.034 H 
HETATM   70  H   LIG     1     -12.055  10.791  65.754  1.00  0.00     0.034 H 
HETATM   71  H   LIG     1     -11.429  12.367  67.455  1.00  0.00     0.054 H 
BRANCH  61  72
HETATM   72  O   LIG     1     -13.110  11.987  63.427  1.00  0.00    -0.396 OA
HETATM   73  H   LIG     1     -13.022  11.063  63.143  1.00  0.00     0.210 HD
ENDBRANCH  61  72
ENDBRANCH  53  56
ENDBRANCH  49  52
ENDBRANCH  46  49
ENDBRANCH   2  46
TORSDOF 11
ENDMDL
MODEL 3
REMARK VINA RESULT:      -8.3      5.789      8.999
REMARK  11 active torsions:
REMARK  status: ('A' for Active; 'I' for Inactive)
REMARK    1  A    between atoms: N_1  and  S_2 
REMARK    2  A    between atoms: S_2  and  C_5 
REMARK    3  A    between atoms: C_8  and  C_9 
REMARK    4  A    between atoms: C_9  and  C_10 
REMARK    5  A    between atoms: C_14  and  N_15 
REMARK       I    between atoms: N_15  and  C_16 
REMARK       I    between atoms: C_16  and  N_18 
REMARK    6  A    between atoms: N_18  and  C_19 
REMARK    7  A    between atoms: C_20  and  C_21 
REMARK    8  A    between atoms: C_21  and  C_22 
REMARK    9  A    between atoms: C_22  and  N_23 
REMARK       I    between atoms: N_23  and  C_24 
REMARK   10  A    between atoms: C_24  and  C_26 
REMARK   11  A    between atoms: C_29  and  O_30 
ROOT
HETATM    1  C   LIG     1      -8.324   8.410  61.312  1.00  0.00     0.057 C 
HETATM    2  C   LIG     1      -7.798   7.240  61.736  1.00  0.00    -0.041 C 
HETATM    3  C   LIG     1      -6.685   6.584  60.935  1.00  0.00     0.034 C 
HETATM    4  C   LIG     1      -5.913   7.601  60.118  1.00  0.00     0.246 C 
HETATM    5  O   LIG     1      -4.689   7.540  60.048  1.00  0.00    -0.271 OA
HETATM    6  N   LIG     1      -6.677   8.507  59.430  1.00  0.00    -0.224 NA
HETATM    7  C   LIG     1      -7.793   8.865  59.985  1.00  0.00     0.032 C 
HETATM    8  H   LIG     1      -7.081   5.800  60.286  1.00  0.00     0.054 H 
HETATM    9  H   LIG     1      -5.929   6.134  61.584  1.00  0.00     0.054 H 
HETATM   10  H   LIG     1      -8.451   9.518  59.394  1.00  0.00     0.118 H 
ENDROOT
BRANCH   1  11
HETATM   11  N   LIG     1      -9.320   9.078  61.997  1.00  0.00    -0.307 N 
HETATM   12  C   LIG     1      -9.328  10.386  62.474  1.00  0.00     0.325 C 
HETATM   13  N   LIG     1     -10.526  10.636  63.137  1.00  0.00    -0.309 N 
HETATM   14  O   LIG     1      -8.394  11.164  62.340  1.00  0.00    -0.247 OA
HETATM   15  H   LIG     1     -11.271   9.972  62.992  1.00  0.00     0.170 HD
HETATM   16  H   LIG     1     -10.107   8.531  62.302  1.00  0.00     0.170 HD
BRANCH  13  17
HETATM   17  C   LIG     1     -10.935  11.801  63.821  1.00  0.00     0.036 A 
HETATM   18  C   LIG     1     -11.990  12.613  63.418  1.00  0.00    -0.057 A 
HETATM   19  C   LIG     1     -12.390  13.687  64.218  1.00  0.00    -0.080 A 
HETATM   20  H   LIG     1     -12.548  12.413  62.509  1.00  0.00     0.086 H 
HETATM   21  C   LIG     1     -11.717  13.977  65.406  1.00  0.00    -0.076 A 
HETATM   22  H   LIG     1     -13.248  14.286  63.920  1.00  0.00     0.083 H 
HETATM   23  C   LIG     1     -10.629  13.196  65.815  1.00  0.00    -0.052 A 
HETATM   24  H   LIG     1     -12.059  14.810  66.017  1.00  0.00     0.084 H 
HETATM   25  C   LIG     1     -10.247  12.111  65.010  1.00  0.00    -0.051 A 
HETATM   26  H   LIG     1      -9.402  11.504  65.326  1.00  0.00     0.087 H 
BRANCH  23  27
HETATM   27  C   LIG     1      -9.913  13.480  67.120  1.00  0.00    -0.017 C 
HETATM   28  H   LIG     1      -9.290  12.610  67.373  1.00  0.00     0.047 H 
HETATM   29  H   LIG     1      -9.202  14.307  66.988  1.00  0.00     0.047 H 
BRANCH  27  30
HETATM   30  C   LIG     1     -10.833  13.810  68.279  1.00  0.00    -0.054 A 
HETATM   31  C   LIG     1     -11.063  15.146  68.649  1.00  0.00    -0.075 A 
HETATM   32  C   LIG     1     -11.905  15.460  69.716  1.00  0.00    -0.060 A 
HETATM   33  H   LIG     1     -10.590  15.958  68.102  1.00  0.00     0.084 H 
HETATM   34  C   LIG     1     -12.517  14.432  70.435  1.00  0.00     0.074 A 
HETATM   35  H   LIG     1     -12.081  16.503  69.972  1.00  0.00     0.085 H 
HETATM   36  C   LIG     1     -12.295  13.095  70.092  1.00  0.00    -0.060 A 
HETATM   37  C   LIG     1     -11.451  12.788  69.018  1.00  0.00    -0.075 A 
HETATM   38  H   LIG     1     -12.774  12.296  70.651  1.00  0.00     0.085 H 
HETATM   39  H   LIG     1     -11.279  11.743  68.766  1.00  0.00     0.084 H 
BRANCH  34  40
HETATM   40  S   LIG     1     -13.604  14.814  71.778  1.00  0.00     0.239 S 
HETATM   41  O   LIG     1     -13.080  15.938  72.493  1.00  0.00    -0.206 OA
HETATM   42  O   LIG     1     -14.004  13.579  72.437  1.00  0.00    -0.206 OA
BRANCH  40  43
HETATM   43  N   LIG     1     -14.987  15.348  70.989  1.00  0.00    -0.225 NA
HETATM   44  H   LIG     1     -14.727  15.750  70.088  1.00  0.00     0.136 HD
HETATM   45  H   LIG     1     -15.503  15.989  71.592  1.00  0.00     0.136 HD
ENDBRANCH  40  43
ENDBRANCH  34  40
ENDBRANCH  27  30
ENDBRANCH  23  27
ENDBRANCH  13  17
ENDBRANCH   1  11
BRANCH   2  46
HETATM   46  C   LIG     1      -8.260   6.489  62.974  1.00  0.00    -0.027 C 
HETATM   47  H   LIG     1      -7.907   5.454  62.898  1.00  0.00     0.042 H 
HETATM   48  H   LIG     1      -9.355   6.456  63.014  1.00  0.00     0.042 H 
BRANCH  46  49
HETATM   49  C   LIG     1      -7.782   7.078  64.306  1.00  0.00    -0.001 C 
HETATM   50  H   LIG     1      -7.331   8.067  64.161  1.00  0.00     0.064 H 
HETATM   51  H   LIG     1      -6.997   6.447  64.733  1.00  0.00     0.064 H 
BRANCH  49  52
HETATM   52  N   LIG     1      -8.878   7.195  65.255  1.00  0.00    -0.360 N 
HETATM   53  C   LIG     1      -9.145   8.384  65.887  1.00  0.00     0.221 C 
HETATM   54  O   LIG     1      -8.420   9.364  65.750  1.00  0.00    -0.273 OA
HETATM   55  H   LIG     1      -9.581   6.467  65.290  1.00  0.00     0.162 HD
BRANCH  53  56
HETATM   56  C   LIG     1     -10.346   8.351  66.839  1.00  0.00     0.024 C 
HETATM   57  C   LIG     1     -10.253   7.134  67.775  1.00  0.00    -0.051 C 
HETATM   58  C   LIG     1      -9.204   7.310  68.879  1.00  0.00    -0.040 C 
HETATM   59  H   LIG     1     -10.018   6.229  67.201  1.00  0.00     0.034 H 
HETATM   60  H   LIG     1     -11.234   6.957  68.232  1.00  0.00     0.034 H 
HETATM   61  C   LIG     1      -9.364   8.619  69.650  1.00  0.00     0.035 C 
HETATM   62  H   LIG     1      -8.199   7.274  68.440  1.00  0.00     0.036 H 
HETATM   63  H   LIG     1      -9.280   6.460  69.567  1.00  0.00     0.036 H 
HETATM   64  C   LIG     1      -9.477   9.830  68.723  1.00  0.00    -0.040 C 
HETATM   65  H   LIG     1      -8.497   8.757  70.306  1.00  0.00     0.082 H 
HETATM   66  C   LIG     1     -10.540   9.646  67.640  1.00  0.00    -0.051 C 
HETATM   67  H   LIG     1      -8.508  10.018  68.244  1.00  0.00     0.036 H 
HETATM   68  H   LIG     1      -9.728  10.722  69.309  1.00  0.00     0.036 H 
HETATM   69  H   LIG     1     -10.540  10.529  66.991  1.00  0.00     0.034 H 
HETATM   70  H   LIG     1     -11.532   9.627  68.111  1.00  0.00     0.034 H 
HETATM   71  H   LIG     1     -11.226   8.212  66.195  1.00  0.00     0.054 H 
BRANCH  61  72
HETATM   72  O   LIG     1     -10.507   8.542  70.504  1.00  0.00    -0.396 OA
HETATM   73  H   LIG     1     -11.300   8.517  69.944  1.00  0.00     0.210 HD
ENDBRANCH  61  72
ENDBRANCH  53  56
ENDBRANCH  49  52
ENDBRANCH  46  49
ENDBRANCH   2  46
TORSDOF 11
ENDMDL
MODEL 4
REMARK VINA RESULT:      -7.2      7.098      9.385
REMARK  11 active torsions:
REMARK  status: ('A' for Active; 'I' for Inactive)
REMARK    1  A    between atoms: N_1  and  S_2 
REMARK    2  A    between atoms: S_2  and  C_5 
REMARK    3  A    between atoms: C_8  and  C_9 
REMARK    4  A    between atoms: C_9  and  C_10 
REMARK    5  A    between atoms: C_14  and  N_15 
REMARK       I    between atoms: N_15  and  C_16 
REMARK       I    between atoms: C_16  and  N_18 
REMARK    6  A    between atoms: N_18  and  C_19 
REMARK    7  A    between atoms: C_20  and  C_21 
REMARK    8  A    between atoms: C_21  and  C_22 
REMARK    9  A    between atoms: C_22  and  N_23 
REMARK       I    between atoms: N_23  and  C_24 
REMARK   10  A    between atoms: C_24  and  C_26 
REMARK   11  A    between atoms: C_29  and  O_30 
ROOT
HETATM    1  C   LIG     1     -10.023   6.321  69.919  1.00  0.00     0.057 C 
HETATM    2  C   LIG     1     -10.459   6.272  71.197  1.00  0.00    -0.041 C 
HETATM    3  C   LIG     1     -10.614   4.925  71.885  1.00  0.00     0.034 C 
HETATM    4  C   LIG     1      -9.706   3.879  71.270  1.00  0.00     0.246 C 
HETATM    5  O   LIG     1      -9.093   3.091  71.985  1.00  0.00    -0.271 OA
HETATM    6  N   LIG     1      -9.693   3.840  69.900  1.00  0.00    -0.224 NA
HETATM    7  C   LIG     1      -9.852   4.972  69.287  1.00  0.00     0.032 C 
HETATM    8  H   LIG     1     -11.652   4.589  71.857  1.00  0.00     0.054 H 
HETATM    9  H   LIG     1     -10.301   4.967  72.932  1.00  0.00     0.054 H 
HETATM   10  H   LIG     1      -9.936   4.932  68.191  1.00  0.00     0.118 H 
ENDROOT
BRANCH   1  11
HETATM   11  N   LIG     1      -9.836   7.507  69.234  1.00  0.00    -0.307 N 
HETATM   12  C   LIG     1     -10.328   7.883  67.988  1.00  0.00     0.325 C 
HETATM   13  N   LIG     1      -9.864   9.155  67.665  1.00  0.00    -0.309 N 
HETATM   14  O   LIG     1     -11.038   7.169  67.293  1.00  0.00    -0.247 OA
HETATM   15  H   LIG     1      -9.459   9.693  68.416  1.00  0.00     0.170 HD
HETATM   16  H   LIG     1      -9.165   8.151  69.616  1.00  0.00     0.170 HD
BRANCH  13  17
HETATM   17  C   LIG     1     -10.065   9.899  66.482  1.00  0.00     0.036 A 
HETATM   18  C   LIG     1      -9.526   9.558  65.245  1.00  0.00    -0.057 A 
HETATM   19  C   LIG     1      -9.867  10.295  64.108  1.00  0.00    -0.080 A 
HETATM   20  H   LIG     1      -8.871   8.701  65.126  1.00  0.00     0.086 H 
HETATM   21  C   LIG     1     -10.721  11.396  64.205  1.00  0.00    -0.076 A 
HETATM   22  H   LIG     1      -9.482   9.991  63.137  1.00  0.00     0.083 H 
HETATM   23  C   LIG     1     -11.248  11.779  65.444  1.00  0.00    -0.052 A 
HETATM   24  H   LIG     1     -10.982  11.943  63.301  1.00  0.00     0.084 H 
HETATM   25  C   LIG     1     -10.908  11.022  66.576  1.00  0.00    -0.051 A 
HETATM   26  H   LIG     1     -11.317  11.318  67.539  1.00  0.00     0.087 H 
BRANCH  23  27
HETATM   27  C   LIG     1     -12.203  12.951  65.556  1.00  0.00    -0.017 C 
HETATM   28  H   LIG     1     -12.670  13.115  64.574  1.00  0.00     0.047 H 
HETATM   29  H   LIG     1     -13.034  12.697  66.226  1.00  0.00     0.047 H 
BRANCH  27  30
HETATM   30  C   LIG     1     -11.560  14.236  66.041  1.00  0.00    -0.054 A 
HETATM   31  C   LIG     1     -10.800  15.029  65.165  1.00  0.00    -0.075 A 
HETATM   32  C   LIG     1     -10.202  16.211  65.603  1.00  0.00    -0.060 A 
HETATM   33  H   LIG     1     -10.671  14.733  64.126  1.00  0.00     0.084 H 
HETATM   34  C   LIG     1     -10.350  16.604  66.933  1.00  0.00     0.074 A 
HETATM   35  H   LIG     1      -9.632  16.816  64.900  1.00  0.00     0.085 H 
HETATM   36  C   LIG     1     -11.093  15.827  67.826  1.00  0.00    -0.060 A 
HETATM   37  C   LIG     1     -11.693  14.643  67.379  1.00  0.00    -0.075 A 
HETATM   38  H   LIG     1     -11.210  16.136  68.861  1.00  0.00     0.085 H 
HETATM   39  H   LIG     1     -12.262  14.042  68.085  1.00  0.00     0.084 H 
BRANCH  34  40
HETATM   40  S   LIG     1      -9.615  18.112  67.499  1.00  0.00     0.239 S 
HETATM   41  O   LIG     1      -8.552  17.797  68.404  1.00  0.00    -0.206 OA
HETATM   42  O   LIG     1     -10.666  19.066  67.822  1.00  0.00    -0.206 OA
BRANCH  40  43
HETATM   43  N   LIG     1      -8.898  18.715  66.106  1.00  0.00    -0.225 NA
HETATM   44  H   LIG     1      -8.662  19.697  66.246  1.00  0.00     0.136 HD
HETATM   45  H   LIG     1      -9.508  18.549  65.305  1.00  0.00     0.136 HD
ENDBRANCH  40  43
ENDBRANCH  34  40
ENDBRANCH  27  30
ENDBRANCH  23  27
ENDBRANCH  13  17
ENDBRANCH   1  11
BRANCH   2  46
HETATM   46  C   LIG     1     -10.845   7.490  72.020  1.00  0.00    -0.027 C 
HETATM   47  H   LIG     1     -11.618   7.187  72.738  1.00  0.00     0.042 H 
HETATM   48  H   LIG     1     -11.285   8.261  71.378  1.00  0.00     0.042 H 
BRANCH  46  49
HETATM   49  C   LIG     1      -9.692   8.150  72.784  1.00  0.00    -0.001 C 
HETATM   50  H   LIG     1      -9.886   9.218  72.946  1.00  0.00     0.064 H 
HETATM   51  H   LIG     1      -8.773   8.095  72.193  1.00  0.00     0.064 H 
BRANCH  49  52
HETATM   52  N   LIG     1      -9.477   7.510  74.072  1.00  0.00    -0.360 N 
HETATM   53  C   LIG     1      -8.387   6.706  74.290  1.00  0.00     0.221 C 
HETATM   54  O   LIG     1      -7.605   6.419  73.390  1.00  0.00    -0.273 OA
HETATM   55  H   LIG     1     -10.006   7.828  74.875  1.00  0.00     0.162 HD
BRANCH  53  56
HETATM   56  C   LIG     1      -8.290   6.126  75.707  1.00  0.00     0.024 C 
HETATM   57  C   LIG     1      -9.664   5.615  76.171  1.00  0.00    -0.051 C 
HETATM   58  C   LIG     1     -10.065   4.294  75.505  1.00  0.00    -0.040 C 
HETATM   59  H   LIG     1     -10.437   6.366  75.968  1.00  0.00     0.034 H 
HETATM   60  H   LIG     1      -9.649   5.483  77.259  1.00  0.00     0.034 H 
HETATM   61  C   LIG     1      -8.985   3.219  75.614  1.00  0.00     0.035 C 
HETATM   62  H   LIG     1     -10.289   4.470  74.446  1.00  0.00     0.036 H 
HETATM   63  H   LIG     1     -10.992   3.939  75.971  1.00  0.00     0.036 H 
HETATM   64  C   LIG     1      -7.611   3.728  75.172  1.00  0.00    -0.040 C 
HETATM   65  H   LIG     1      -9.264   2.366  74.986  1.00  0.00     0.082 H 
HETATM   66  C   LIG     1      -7.219   5.036  75.860  1.00  0.00    -0.051 C 
HETATM   67  H   LIG     1      -7.608   3.880  74.086  1.00  0.00     0.036 H 
HETATM   68  H   LIG     1      -6.848   2.974  75.398  1.00  0.00     0.036 H 
HETATM   69  H   LIG     1      -6.249   5.362  75.470  1.00  0.00     0.034 H 
HETATM   70  H   LIG     1      -7.057   4.845  76.929  1.00  0.00     0.034 H 
HETATM   71  H   LIG     1      -8.011   6.971  76.351  1.00  0.00     0.054 H 
BRANCH  61  72
HETATM   72  O   LIG     1      -8.923   2.729  76.955  1.00  0.00    -0.396 OA
HETATM   73  H   LIG     1      -9.547   1.989  77.034  1.00  0.00     0.210 HD
ENDBRANCH  61  72
ENDBRANCH  53  56
ENDBRANCH  49  52
ENDBRANCH  46  49
ENDBRANCH   2  46
TORSDOF 11
ENDMDL
MODEL 5
REMARK VINA RESULT:      -7.0      6.725      9.252
REMARK  11 active torsions:
REMARK  status: ('A' for Active; 'I' for Inactive)
REMARK    1  A    between atoms: N_1  and  S_2 
REMARK    2  A    between atoms: S_2  and  C_5 
REMARK    3  A    between atoms: C_8  and  C_9 
REMARK    4  A    between atoms: C_9  and  C_10 
REMARK    5  A    between atoms: C_14  and  N_15 
REMARK       I    between atoms: N_15  and  C_16 
REMARK       I    between atoms: C_16  and  N_18 
REMARK    6  A    between atoms: N_18  and  C_19 
REMARK    7  A    between atoms: C_20  and  C_21 
REMARK    8  A    between atoms: C_21  and  C_22 
REMARK    9  A    between atoms: C_22  and  N_23 
REMARK       I    between atoms: N_23  and  C_24 
REMARK   10  A    between atoms: C_24  and  C_26 
REMARK   11  A    between atoms: C_29  and  O_30 
ROOT
HETATM    1  C   LIG     1     -10.265   6.766  72.386  1.00  0.00     0.057 C 
HETATM    2  C   LIG     1      -9.655   6.846  73.589  1.00  0.00    -0.041 C 
HETATM    3  C   LIG     1     -10.078   5.908  74.708  1.00  0.00     0.034 C 
HETATM    4  C   LIG     1     -10.691   4.633  74.164  1.00  0.00     0.246 C 
HETATM    5  O   LIG     1     -10.411   3.547  74.663  1.00  0.00    -0.271 OA
HETATM    6  N   LIG     1     -11.609   4.802  73.160  1.00  0.00    -0.224 NA
HETATM    7  C   LIG     1     -11.409   5.796  72.352  1.00  0.00     0.032 C 
HETATM    8  H   LIG     1     -10.774   6.402  75.390  1.00  0.00     0.054 H 
HETATM    9  H   LIG     1      -9.223   5.563  75.293  1.00  0.00     0.054 H 
HETATM   10  H   LIG     1     -12.192   5.990  71.605  1.00  0.00     0.118 H 
ENDROOT
BRANCH   1  11
HETATM   11  N   LIG     1      -9.922   7.568  71.315  1.00  0.00    -0.307 N 
HETATM   12  C   LIG     1     -10.705   8.489  70.626  1.00  0.00     0.325 C 
HETATM   13  N   LIG     1      -9.965   9.052  69.589  1.00  0.00    -0.309 N 
HETATM   14  O   LIG     1     -11.874   8.726  70.897  1.00  0.00    -0.247 OA
HETATM   15  H   LIG     1      -8.967   8.908  69.616  1.00  0.00     0.170 HD
HETATM   16  H   LIG     1      -9.028   7.396  70.887  1.00  0.00     0.170 HD
BRANCH  13  17
HETATM   17  C   LIG     1     -10.375   9.981  68.609  1.00  0.00     0.036 A 
HETATM   18  C   LIG     1     -10.423   9.708  67.245  1.00  0.00    -0.057 A 
HETATM   19  C   LIG     1     -10.944  10.655  66.361  1.00  0.00    -0.080 A 
HETATM   20  H   LIG     1     -10.100   8.752  66.845  1.00  0.00     0.086 H 
HETATM   21  C   LIG     1     -11.390  11.893  66.828  1.00  0.00    -0.076 A 
HETATM   22  H   LIG     1     -11.024  10.413  65.303  1.00  0.00     0.083 H 
HETATM   23  C   LIG     1     -11.320  12.205  68.191  1.00  0.00    -0.052 A 
HETATM   24  H   LIG     1     -11.805  12.606  66.119  1.00  0.00     0.084 H 
HETATM   25  C   LIG     1     -10.807  11.239  69.071  1.00  0.00    -0.051 A 
HETATM   26  H   LIG     1     -10.752  11.479  70.130  1.00  0.00     0.087 H 
BRANCH  23  27
HETATM   27  C   LIG     1     -11.833  13.532  68.714  1.00  0.00    -0.017 C 
HETATM   28  H   LIG     1     -12.829  13.714  68.286  1.00  0.00     0.047 H 
HETATM   29  H   LIG     1     -11.997  13.473  69.798  1.00  0.00     0.047 H 
BRANCH  27  30
HETATM   30  C   LIG     1     -10.924  14.711  68.423  1.00  0.00    -0.054 A 
HETATM   31  C   LIG     1      -9.593  14.504  68.025  1.00  0.00    -0.075 A 
HETATM   32  C   LIG     1      -8.748  15.582  67.758  1.00  0.00    -0.060 A 
HETATM   33  H   LIG     1      -9.203  13.495  67.912  1.00  0.00     0.084 H 
HETATM   34  C   LIG     1      -9.228  16.884  67.903  1.00  0.00     0.074 A 
HETATM   35  H   LIG     1      -7.726  15.395  67.434  1.00  0.00     0.085 H 
HETATM   36  C   LIG     1     -10.546  17.114  68.308  1.00  0.00    -0.060 A 
HETATM   37  C   LIG     1     -11.389  16.028  68.571  1.00  0.00    -0.075 A 
HETATM   38  H   LIG     1     -10.919  18.129  68.418  1.00  0.00     0.085 H 
HETATM   39  H   LIG     1     -12.410  16.221  68.894  1.00  0.00     0.084 H 
BRANCH  34  40
HETATM   40  S   LIG     1      -8.175  18.262  67.549  1.00  0.00     0.239 S 
HETATM   41  O   LIG     1      -6.860  17.777  67.259  1.00  0.00    -0.206 OA
HETATM   42  O   LIG     1      -8.429  19.320  68.516  1.00  0.00    -0.206 OA
BRANCH  40  43
HETATM   43  N   LIG     1      -8.804  18.840  66.103  1.00  0.00    -0.225 NA
HETATM   44  H   LIG     1      -9.804  19.007  66.213  1.00  0.00     0.136 HD
HETATM   45  H   LIG     1      -8.575  18.196  65.345  1.00  0.00     0.136 HD
ENDBRANCH  40  43
ENDBRANCH  34  40
ENDBRANCH  27  30
ENDBRANCH  23  27
ENDBRANCH  13  17
ENDBRANCH   1  11
BRANCH   2  46
HETATM   46  C   LIG     1      -8.564   7.846  73.934  1.00  0.00    -0.027 C 
HETATM   47  H   LIG     1      -9.038   8.814  74.136  1.00  0.00     0.042 H 
HETATM   48  H   LIG     1      -7.891   7.986  73.080  1.00  0.00     0.042 H 
BRANCH  46  49
HETATM   49  C   LIG     1      -7.688   7.464  75.132  1.00  0.00    -0.001 C 
HETATM   50  H   LIG     1      -6.677   7.185  74.810  1.00  0.00     0.064 H 
HETATM   51  H   LIG     1      -8.101   6.582  75.630  1.00  0.00     0.064 H 
BRANCH  49  52
HETATM   52  N   LIG     1      -7.593   8.557  76.086  1.00  0.00    -0.360 N 
HETATM   53  C   LIG     1      -6.675   9.564  75.921  1.00  0.00     0.221 C 
HETATM   54  O   LIG     1      -5.841   9.536  75.021  1.00  0.00    -0.273 OA
HETATM   55  H   LIG     1      -8.343   8.698  76.752  1.00  0.00     0.162 HD
BRANCH  53  56
HETATM   56  C   LIG     1      -6.716  10.655  76.998  1.00  0.00     0.024 C 
HETATM   57  C   LIG     1      -5.635  10.397  78.061  1.00  0.00    -0.051 C 
HETATM   58  C   LIG     1      -4.223  10.736  77.571  1.00  0.00    -0.040 C 
HETATM   59  H   LIG     1      -5.659   9.348  78.381  1.00  0.00     0.034 H 
HETATM   60  H   LIG     1      -5.861  10.991  78.954  1.00  0.00     0.034 H 
HETATM   61  C   LIG     1      -4.120  12.140  76.975  1.00  0.00     0.035 C 
HETATM   62  H   LIG     1      -3.910  10.004  76.817  1.00  0.00     0.036 H 
HETATM   63  H   LIG     1      -3.531  10.639  78.416  1.00  0.00     0.036 H 
HETATM   64  C   LIG     1      -5.206  12.408  75.930  1.00  0.00    -0.040 C 
HETATM   65  H   LIG     1      -3.139  12.257  76.501  1.00  0.00     0.082 H 
HETATM   66  C   LIG     1      -6.609  12.082  76.442  1.00  0.00    -0.051 C 
HETATM   67  H   LIG     1      -5.006  11.813  75.031  1.00  0.00     0.036 H 
HETATM   68  H   LIG     1      -5.180  13.464  75.634  1.00  0.00     0.036 H 
HETATM   69  H   LIG     1      -7.329  12.258  75.635  1.00  0.00     0.034 H 
HETATM   70  H   LIG     1      -6.876  12.793  77.235  1.00  0.00     0.034 H 
HETATM   71  H   LIG     1      -7.696  10.550  77.484  1.00  0.00     0.054 H 
BRANCH  61  72
HETATM   72  O   LIG     1      -4.185  13.115  78.016  1.00  0.00    -0.396 OA
HETATM   73  H   LIG     1      -5.118  13.343  78.158  1.00  0.00     0.210 HD
ENDBRANCH  61  72
ENDBRANCH  53  56
ENDBRANCH  49  52
ENDBRANCH  46  49
ENDBRANCH   2  46
TORSDOF 11
ENDMDL
MODEL 6
REMARK VINA RESULT:      -6.8      7.360     11.125
REMARK  11 active torsions:
REMARK  status: ('A' for Active; 'I' for Inactive)
REMARK    1  A    between atoms: N_1  and  S_2 
REMARK    2  A    between atoms: S_2  and  C_5 
REMARK    3  A    between atoms: C_8  and  C_9 
REMARK    4  A    between atoms: C_9  and  C_10 
REMARK    5  A    between atoms: C_14  and  N_15 
REMARK       I    between atoms: N_15  and  C_16 
REMARK       I    between atoms: C_16  and  N_18 
REMARK    6  A    between atoms: N_18  and  C_19 
REMARK    7  A    between atoms: C_20  and  C_21 
REMARK    8  A    between atoms: C_21  and  C_22 
REMARK    9  A    between atoms: C_22  and  N_23 
REMARK       I    between atoms: N_23  and  C_24 
REMARK   10  A    between atoms: C_24  and  C_26 
REMARK   11  A    between atoms: C_29  and  O_30 
ROOT
HETATM    1  C   LIG     1     -10.710   5.765  72.849  1.00  0.00     0.057 C 
HETATM    2  C   LIG     1      -9.916   6.298  73.804  1.00  0.00    -0.041 C 
HETATM    3  C   LIG     1      -9.605   5.492  75.056  1.00  0.00     0.034 C 
HETATM    4  C   LIG     1      -9.727   4.002  74.803  1.00  0.00     0.246 C 
HETATM    5  O   LIG     1      -8.895   3.225  75.262  1.00  0.00    -0.271 OA
HETATM    6  N   LIG     1     -10.846   3.610  74.115  1.00  0.00    -0.224 NA
HETATM    7  C   LIG     1     -11.297   4.436  73.223  1.00  0.00     0.032 C 
HETATM    8  H   LIG     1     -10.253   5.790  75.883  1.00  0.00     0.054 H 
HETATM    9  H   LIG     1      -8.569   5.624  75.376  1.00  0.00     0.054 H 
HETATM   10  H   LIG     1     -12.245   4.167  72.736  1.00  0.00     0.118 H 
ENDROOT
BRANCH   1  11
HETATM   11  N   LIG     1     -11.019   6.425  71.676  1.00  0.00    -0.307 N 
HETATM   12  C   LIG     1     -10.197   6.705  70.588  1.00  0.00     0.325 C 
HETATM   13  N   LIG     1     -10.913   7.422  69.632  1.00  0.00    -0.309 N 
HETATM   14  O   LIG     1      -9.020   6.382  70.523  1.00  0.00    -0.247 OA
HETATM   15  H   LIG     1     -11.916   7.437  69.736  1.00  0.00     0.170 HD
HETATM   16  H   LIG     1     -11.919   6.872  71.629  1.00  0.00     0.170 HD
BRANCH  13  17
HETATM   17  C   LIG     1     -10.463   7.960  68.407  1.00  0.00     0.036 A 
HETATM   18  C   LIG     1      -9.774   7.232  67.441  1.00  0.00    -0.057 A 
HETATM   19  C   LIG     1      -9.463   7.822  66.213  1.00  0.00    -0.080 A 
HETATM   20  H   LIG     1      -9.501   6.194  67.598  1.00  0.00     0.086 H 
HETATM   21  C   LIG     1      -9.807   9.150  65.955  1.00  0.00    -0.076 A 
HETATM   22  H   LIG     1      -8.968   7.230  65.445  1.00  0.00     0.083 H 
HETATM   23  C   LIG     1     -10.470   9.913  66.924  1.00  0.00    -0.052 A 
HETATM   24  H   LIG     1      -9.566   9.579  64.985  1.00  0.00     0.084 H 
HETATM   25  C   LIG     1     -10.789   9.304  68.148  1.00  0.00    -0.051 A 
HETATM   26  H   LIG     1     -11.304   9.896  68.902  1.00  0.00     0.087 H 
BRANCH  23  27
HETATM   27  C   LIG     1     -10.879  11.345  66.642  1.00  0.00    -0.017 C 
HETATM   28  H   LIG     1     -10.030  11.865  66.177  1.00  0.00     0.047 H 
HETATM   29  H   LIG     1     -11.673  11.367  65.884  1.00  0.00     0.047 H 
BRANCH  27  30
HETATM   30  C   LIG     1     -11.349  12.113  67.862  1.00  0.00    -0.054 A 
HETATM   31  C   LIG     1     -11.670  11.435  69.051  1.00  0.00    -0.075 A 
HETATM   32  C   LIG     1     -12.106  12.132  70.178  1.00  0.00    -0.060 A 
HETATM   33  H   LIG     1     -11.575  10.353  69.110  1.00  0.00     0.084 H 
HETATM   34  C   LIG     1     -12.240  13.519  70.120  1.00  0.00     0.074 A 
HETATM   35  H   LIG     1     -12.332  11.586  71.092  1.00  0.00     0.085 H 
HETATM   36  C   LIG     1     -11.938  14.213  68.945  1.00  0.00    -0.060 A 
HETATM   37  C   LIG     1     -11.497  13.508  67.819  1.00  0.00    -0.075 A 
HETATM   38  H   LIG     1     -12.040  15.295  68.902  1.00  0.00     0.085 H 
HETATM   39  H   LIG     1     -11.273  14.059  66.908  1.00  0.00     0.084 H 
BRANCH  34  40
HETATM   40  S   LIG     1     -12.773  14.420  71.547  1.00  0.00     0.239 S 
HETATM   41  O   LIG     1     -11.691  15.235  72.010  1.00  0.00    -0.206 OA
HETATM   42  O   LIG     1     -13.519  13.530  72.424  1.00  0.00    -0.206 OA
BRANCH  40  43
HETATM   43  N   LIG     1     -13.925  15.464  70.912  1.00  0.00    -0.225 NA
HETATM   44  H   LIG     1     -13.476  16.099  70.252  1.00  0.00     0.136 HD
HETATM   45  H   LIG     1     -14.416  15.938  71.670  1.00  0.00     0.136 HD
ENDBRANCH  40  43
ENDBRANCH  34  40
ENDBRANCH  27  30
ENDBRANCH  23  27
ENDBRANCH  13  17
ENDBRANCH   1  11
BRANCH   2  46
HETATM   46  C   LIG     1      -9.310   7.690  73.740  1.00  0.00    -0.027 C 
HETATM   47  H   LIG     1      -9.973   8.377  74.280  1.00  0.00     0.042 H 
HETATM   48  H   LIG     1      -9.261   8.037  72.702  1.00  0.00     0.042 H 
BRANCH  46  49
HETATM   49  C   LIG     1      -7.896   7.809  74.318  1.00  0.00    -0.001 C 
HETATM   50  H   LIG     1      -7.177   8.108  73.544  1.00  0.00     0.064 H 
HETATM   51  H   LIG     1      -7.559   6.836  74.685  1.00  0.00     0.064 H 
BRANCH  49  52
HETATM   52  N   LIG     1      -7.848   8.778  75.402  1.00  0.00    -0.360 N 
HETATM   53  C   LIG     1      -6.650   9.201  75.922  1.00  0.00     0.221 C 
HETATM   54  O   LIG     1      -5.583   8.716  75.562  1.00  0.00    -0.273 OA
HETATM   55  H   LIG     1      -8.681   9.307  75.628  1.00  0.00     0.162 HD
BRANCH  53  56
HETATM   56  C   LIG     1      -6.768  10.241  77.043  1.00  0.00     0.024 C 
HETATM   57  C   LIG     1      -5.597  10.100  78.029  1.00  0.00    -0.051 C 
HETATM   58  C   LIG     1      -4.277  10.645  77.469  1.00  0.00    -0.040 C 
HETATM   59  H   LIG     1      -5.458   9.048  78.307  1.00  0.00     0.034 H 
HETATM   60  H   LIG     1      -5.843  10.628  78.957  1.00  0.00     0.034 H 
HETATM   61  C   LIG     1      -4.403  12.067  76.925  1.00  0.00     0.035 C 
HETATM   62  H   LIG     1      -3.918   9.986  76.669  1.00  0.00     0.036 H 
HETATM   63  H   LIG     1      -3.525  10.616  78.267  1.00  0.00     0.036 H 
HETATM   64  C   LIG     1      -5.580  12.218  75.958  1.00  0.00    -0.040 C 
HETATM   65  H   LIG     1      -3.479  12.332  76.399  1.00  0.00     0.082 H 
HETATM   66  C   LIG     1      -6.891  11.686  76.539  1.00  0.00    -0.051 C 
HETATM   67  H   LIG     1      -5.360  11.684  75.025  1.00  0.00     0.036 H 
HETATM   68  H   LIG     1      -5.715  13.275  75.704  1.00  0.00     0.036 H 
HETATM   69  H   LIG     1      -7.677  11.788  75.784  1.00  0.00     0.034 H 
HETATM   70  H   LIG     1      -7.199  12.329  77.375  1.00  0.00     0.034 H 
HETATM   71  H   LIG     1      -7.692   9.988  77.581  1.00  0.00     0.054 H 
BRANCH  61  72
HETATM   72  O   LIG     1      -4.531  12.991  78.007  1.00  0.00    -0.396 OA
HETATM   73  H   LIG     1      -5.380  12.823  78.447  1.00  0.00     0.210 HD
ENDBRANCH  61  72
ENDBRANCH  53  56
ENDBRANCH  49  52
ENDBRANCH  46  49
ENDBRANCH   2  46
TORSDOF 11
ENDMDL
MODEL 7
REMARK VINA RESULT:      -6.2      9.286     13.356
REMARK  11 active torsions:
REMARK  status: ('A' for Active; 'I' for Inactive)
REMARK    1  A    between atoms: N_1  and  S_2 
REMARK    2  A    between atoms: S_2  and  C_5 
REMARK    3  A    between atoms: C_8  and  C_9 
REMARK    4  A    between atoms: C_9  and  C_10 
REMARK    5  A    between atoms: C_14  and  N_15 
REMARK       I    between atoms: N_15  and  C_16 
REMARK       I    between atoms: C_16  and  N_18 
REMARK    6  A    between atoms: N_18  and  C_19 
REMARK    7  A    between atoms: C_20  and  C_21 
REMARK    8  A    between atoms: C_21  and  C_22 
REMARK    9  A    between atoms: C_22  and  N_23 
REMARK       I    between atoms: N_23  and  C_24 
REMARK   10  A    between atoms: C_24  and  C_26 
REMARK   11  A    between atoms: C_29  and  O_30 
ROOT
HETATM    1  C   LIG     1      -9.100   7.193  72.348  1.00  0.00     0.057 C 
HETATM    2  C   LIG     1      -8.821   7.705  71.129  1.00  0.00    -0.041 C 
HETATM    3  C   LIG     1      -9.093   6.873  69.886  1.00  0.00     0.034 C 
HETATM    4  C   LIG     1     -10.177   5.843  70.132  1.00  0.00     0.246 C 
HETATM    5  O   LIG     1     -11.042   5.637  69.286  1.00  0.00    -0.271 OA
HETATM    6  N   LIG     1     -10.064   5.134  71.300  1.00  0.00    -0.224 NA
HETATM    7  C   LIG     1      -9.555   5.764  72.313  1.00  0.00     0.032 C 
HETATM    8  H   LIG     1      -8.181   6.386  69.534  1.00  0.00     0.054 H 
HETATM    9  H   LIG     1      -9.486   7.482  69.068  1.00  0.00     0.054 H 
HETATM   10  H   LIG     1      -9.375   5.172  73.223  1.00  0.00     0.118 H 
ENDROOT
BRANCH   1  11
HETATM   11  N   LIG     1      -8.902   7.895  73.521  1.00  0.00    -0.307 N 
HETATM   12  C   LIG     1      -7.757   7.974  74.309  1.00  0.00     0.325 C 
HETATM   13  N   LIG     1      -8.010   8.769  75.425  1.00  0.00    -0.309 N 
HETATM   14  O   LIG     1      -6.711   7.396  74.050  1.00  0.00    -0.247 OA
HETATM   15  H   LIG     1      -8.845   9.333  75.397  1.00  0.00     0.170 HD
HETATM   16  H   LIG     1      -9.712   8.319  73.940  1.00  0.00     0.170 HD
BRANCH  13  17
HETATM   17  C   LIG     1      -7.160   9.070  76.510  1.00  0.00     0.036 A 
HETATM   18  C   LIG     1      -6.659   8.122  77.396  1.00  0.00    -0.057 A 
HETATM   19  C   LIG     1      -5.738   8.500  78.376  1.00  0.00    -0.080 A 
HETATM   20  H   LIG     1      -6.934   7.075  77.325  1.00  0.00     0.086 H 
HETATM   21  C   LIG     1      -5.337   9.832  78.499  1.00  0.00    -0.076 A 
HETATM   22  H   LIG     1      -5.313   7.743  79.032  1.00  0.00     0.083 H 
HETATM   23  C   LIG     1      -5.854  10.810  77.641  1.00  0.00    -0.052 A 
HETATM   24  H   LIG     1      -4.607  10.095  79.261  1.00  0.00     0.084 H 
HETATM   25  C   LIG     1      -6.767  10.415  76.652  1.00  0.00    -0.051 A 
HETATM   26  H   LIG     1      -7.170  11.174  75.985  1.00  0.00     0.087 H 
BRANCH  23  27
HETATM   27  C   LIG     1      -5.400  12.253  77.743  1.00  0.00    -0.017 C 
HETATM   28  H   LIG     1      -5.045  12.577  76.754  1.00  0.00     0.047 H 
HETATM   29  H   LIG     1      -6.257  12.903  77.962  1.00  0.00     0.047 H 
BRANCH  27  30
HETATM   30  C   LIG     1      -4.324  12.498  78.783  1.00  0.00    -0.054 A 
HETATM   31  C   LIG     1      -2.996  12.111  78.539  1.00  0.00    -0.075 A 
HETATM   32  C   LIG     1      -1.999  12.329  79.491  1.00  0.00    -0.060 A 
HETATM   33  H   LIG     1      -2.723  11.640  77.598  1.00  0.00     0.084 H 
HETATM   34  C   LIG     1      -2.329  12.927  80.708  1.00  0.00     0.074 A 
HETATM   35  H   LIG     1      -0.974  12.036  79.272  1.00  0.00     0.085 H 
HETATM   36  C   LIG     1      -3.646  13.310  80.977  1.00  0.00    -0.060 A 
HETATM   37  C   LIG     1      -4.640  13.092  80.016  1.00  0.00    -0.075 A 
HETATM   38  H   LIG     1      -3.901  13.778  81.924  1.00  0.00     0.085 H 
HETATM   39  H   LIG     1      -5.663  13.387  80.241  1.00  0.00     0.084 H 
BRANCH  34  40
HETATM   40  S   LIG     1      -1.073  13.229  81.918  1.00  0.00     0.239 S 
HETATM   41  O   LIG     1      -0.492  11.978  82.304  1.00  0.00    -0.206 OA
HETATM   42  O   LIG     1      -1.562  14.201  82.884  1.00  0.00    -0.206 OA
BRANCH  40  43
HETATM   43  N   LIG     1       0.096  14.050  81.034  1.00  0.00    -0.225 NA
HETATM   44  H   LIG     1      -0.335  14.461  80.206  1.00  0.00     0.136 HD
HETATM   45  H   LIG     1       0.874  13.423  80.826  1.00  0.00     0.136 HD
ENDBRANCH  40  43
ENDBRANCH  34  40
ENDBRANCH  27  30
ENDBRANCH  23  27
ENDBRANCH  13  17
ENDBRANCH   1  11
BRANCH   2  46
HETATM   46  C   LIG     1      -8.213   9.078  70.893  1.00  0.00    -0.027 C 
HETATM   47  H   LIG     1      -7.185   9.067  71.275  1.00  0.00     0.042 H 
HETATM   48  H   LIG     1      -8.761   9.840  71.458  1.00  0.00     0.042 H 
BRANCH  46  49
HETATM   49  C   LIG     1      -8.193   9.536  69.430  1.00  0.00    -0.001 C 
HETATM   50  H   LIG     1      -8.655   8.786  68.776  1.00  0.00     0.064 H 
HETATM   51  H   LIG     1      -7.160   9.641  69.087  1.00  0.00     0.064 H 
BRANCH  49  52
HETATM   52  N   LIG     1      -8.890  10.801  69.263  1.00  0.00    -0.360 N 
HETATM   53  C   LIG     1      -8.609  11.630  68.206  1.00  0.00     0.221 C 
HETATM   54  O   LIG     1      -7.702  11.387  67.417  1.00  0.00    -0.273 OA
HETATM   55  H   LIG     1      -9.734  10.973  69.796  1.00  0.00     0.162 HD
BRANCH  53  56
HETATM   56  C   LIG     1      -9.446  12.914  68.157  1.00  0.00     0.024 C 
HETATM   57  C   LIG     1      -9.398  13.531  66.750  1.00  0.00    -0.051 C 
HETATM   58  C   LIG     1     -10.254  12.767  65.734  1.00  0.00    -0.040 C 
HETATM   59  H   LIG     1      -8.363  13.569  66.386  1.00  0.00     0.034 H 
HETATM   60  H   LIG     1      -9.739  14.572  66.802  1.00  0.00     0.034 H 
HETATM   61  C   LIG     1     -11.687  12.539  66.214  1.00  0.00     0.035 C 
HETATM   62  H   LIG     1      -9.791  11.796  65.519  1.00  0.00     0.036 H 
HETATM   63  H   LIG     1     -10.262  13.330  64.794  1.00  0.00     0.036 H 
HETATM   64  C   LIG     1     -11.741  11.944  67.622  1.00  0.00    -0.040 C 
HETATM   65  H   LIG     1     -12.192  11.855  65.523  1.00  0.00     0.082 H 
HETATM   66  C   LIG     1     -10.897  12.729  68.626  1.00  0.00    -0.051 C 
HETATM   67  H   LIG     1     -11.391  10.905  67.596  1.00  0.00     0.036 H 
HETATM   68  H   LIG     1     -12.778  11.929  67.977  1.00  0.00     0.036 H 
HETATM   69  H   LIG     1     -10.948  12.228  69.599  1.00  0.00     0.034 H 
HETATM   70  H   LIG     1     -11.349  13.718  68.780  1.00  0.00     0.034 H 
HETATM   71  H   LIG     1      -8.951  13.613  68.847  1.00  0.00     0.054 H 
BRANCH  61  72
HETATM   72  O   LIG     1     -12.414  13.768  66.168  1.00  0.00    -0.396 OA
HETATM   73  H   LIG     1     -13.167  13.651  65.566  1.00  0.00     0.210 HD
ENDBRANCH  61  72
ENDBRANCH  53  56
ENDBRANCH  49  52
ENDBRANCH  46  49
ENDBRANCH   2  46
TORSDOF 11
ENDMDL
