MODEL 1
REMARK VINA RESULT:      -7.3      0.000      0.000
REMARK  11 active torsions:
REMARK  status: ('A' for Active; 'I' for Inactive)
REMARK    1  A    between atoms: N_1  and  S_2 
REMARK    2  A    between atoms: S_2  and  C_5 
REMARK    3  A    between atoms: C_8  and  C_9 
REMARK    4  A    between atoms: C_9  and  C_10 
REMARK    5  A    between atoms: C_14  and  N_15 
REMARK       I    between atoms: N_15  and  C_16 
REMARK       I    between atoms: C_16  and  N_18 
REMARK    6  A    between atoms: N_18  and  C_19 
REMARK    7  A    between atoms: C_21  and  C_22 
REMARK    8  A    between atoms: C_22  and  C_23 
REMARK    9  A    between atoms: C_23  and  N_24 
REMARK       I    between atoms: N_24  and  C_25 
REMARK   10  A    between atoms: C_25  and  C_27 
REMARK   11  A    between atoms: C_30  and  O_31 
ROOT
HETATM    1  C   LIG     1     -11.205  13.524  68.580  1.00  0.00     0.051 C 
HETATM    2  C   LIG     1     -11.965  13.586  67.476  1.00  0.00    -0.063 C 
HETATM    3  C   LIG     1     -11.531  14.336  66.230  1.00  0.00     0.045 C 
HETATM    4  C   LIG     1     -10.495  15.405  66.597  1.00  0.00     0.250 C 
HETATM    5  O   LIG     1     -10.469  16.477  65.995  1.00  0.00    -0.271 OA
HETATM    6  N   LIG     1      -9.548  15.074  67.533  1.00  0.00    -0.224 NA
HETATM    7  C   LIG     1      -9.888  14.223  68.445  1.00  0.00     0.031 C 
HETATM    8  H   LIG     1     -12.934  13.098  67.430  1.00  0.00     0.081 H 
HETATM    9  H   LIG     1     -12.408  14.872  65.843  1.00  0.00     0.061 H 
HETATM   10  H   LIG     1      -9.104  13.962  69.165  1.00  0.00     0.118 H 
ENDROOT
BRANCH   1  11
HETATM   11  N   LIG     1     -11.594  12.821  69.703  1.00  0.00    -0.308 N 
HETATM   12  C   LIG     1     -11.863  11.461  69.753  1.00  0.00     0.325 C 
HETATM   13  N   LIG     1     -12.218  11.022  71.021  1.00  0.00    -0.309 N 
HETATM   14  O   LIG     1     -11.775  10.735  68.772  1.00  0.00    -0.247 OA
HETATM   15  H   LIG     1     -11.912  11.584  71.803  1.00  0.00     0.170 HD
HETATM   16  H   LIG     1     -11.697  13.345  70.559  1.00  0.00     0.170 HD
BRANCH  13  17
HETATM   17  C   LIG     1     -12.582   9.674  71.300  1.00  0.00     0.036 A 
HETATM   18  C   LIG     1     -13.910   9.301  71.528  1.00  0.00    -0.057 A 
HETATM   19  C   LIG     1     -14.267   7.964  71.636  1.00  0.00    -0.080 A 
HETATM   20  H   LIG     1     -14.708  10.033  71.603  1.00  0.00     0.086 H 
HETATM   21  C   LIG     1     -13.292   6.976  71.564  1.00  0.00    -0.076 A 
HETATM   22  H   LIG     1     -15.314   7.695  71.747  1.00  0.00     0.083 H 
HETATM   23  C   LIG     1     -11.936   7.312  71.438  1.00  0.00    -0.052 A 
HETATM   24  H   LIG     1     -13.620   5.942  71.603  1.00  0.00     0.084 H 
HETATM   25  C   LIG     1     -11.593   8.677  71.307  1.00  0.00    -0.051 A 
HETATM   26  H   LIG     1     -10.549   8.947  71.160  1.00  0.00     0.087 H 
BRANCH  23  27
HETATM   27  C   LIG     1     -10.866   6.242  71.317  1.00  0.00    -0.017 C 
HETATM   28  H   LIG     1      -9.957   6.599  71.818  1.00  0.00     0.047 H 
HETATM   29  H   LIG     1     -11.184   5.344  71.863  1.00  0.00     0.047 H 
BRANCH  27  30
HETATM   30  C   LIG     1     -10.525   5.829  69.892  1.00  0.00    -0.054 A 
HETATM   31  C   LIG     1      -9.567   4.831  69.649  1.00  0.00    -0.075 A 
HETATM   32  C   LIG     1      -9.310   4.377  68.351  1.00  0.00    -0.060 A 
HETATM   33  H   LIG     1      -9.022   4.394  70.488  1.00  0.00     0.084 H 
HETATM   34  C   LIG     1     -10.028   4.918  67.283  1.00  0.00     0.074 A 
HETATM   35  H   LIG     1      -8.550   3.608  68.212  1.00  0.00     0.085 H 
HETATM   36  C   LIG     1     -10.971   5.932  67.500  1.00  0.00    -0.060 A 
HETATM   37  C   LIG     1     -11.216   6.383  68.802  1.00  0.00    -0.075 A 
HETATM   38  H   LIG     1     -11.516   6.371  66.667  1.00  0.00     0.085 H 
HETATM   39  H   LIG     1     -11.972   7.151  68.964  1.00  0.00     0.084 H 
BRANCH  34  40
HETATM   40  S   LIG     1      -9.768   4.353  65.611  1.00  0.00     0.239 S 
HETATM   41  O   LIG     1      -9.341   2.959  65.659  1.00  0.00    -0.206 OA
HETATM   42  O   LIG     1      -8.999   5.359  64.941  1.00  0.00    -0.206 OA
BRANCH  40  43
HETATM   43  N   LIG     1     -11.345   4.417  64.982  1.00  0.00    -0.225 NA
HETATM   44  H   LIG     1     -11.423   4.718  64.009  1.00  0.00     0.136 HD
HETATM   45  H   LIG     1     -11.936   3.602  65.189  1.00  0.00     0.136 HD
ENDBRANCH  40  43
ENDBRANCH  34  40
ENDBRANCH  27  30
ENDBRANCH  23  27
ENDBRANCH  13  17
ENDBRANCH   1  11
BRANCH   3  46
HETATM   46  C   LIG     1     -10.988  13.366  65.164  1.00  0.00    -0.036 C 
HETATM   47  H   LIG     1      -9.942  13.627  64.954  1.00  0.00     0.037 H 
HETATM   48  H   LIG     1     -11.532  13.506  64.220  1.00  0.00     0.037 H 
BRANCH  46  49
HETATM   49  C   LIG     1     -11.069  11.886  65.564  1.00  0.00    -0.004 C 
HETATM   50  H   LIG     1     -11.389  11.277  64.714  1.00  0.00     0.064 H 
HETATM   51  H   LIG     1     -11.783  11.744  66.382  1.00  0.00     0.064 H 
BRANCH  49  52
HETATM   52  N   LIG     1      -9.774  11.347  65.975  1.00  0.00    -0.361 N 
HETATM   53  C   LIG     1      -9.543  10.012  66.202  1.00  0.00     0.221 C 
HETATM   54  O   LIG     1     -10.430   9.165  66.103  1.00  0.00    -0.273 OA
HETATM   55  H   LIG     1      -8.989  11.993  65.965  1.00  0.00     0.162 HD
BRANCH  53  56
HETATM   56  C   LIG     1      -8.114   9.673  66.689  1.00  0.00     0.024 C 
HETATM   57  C   LIG     1      -7.379  10.881  67.295  1.00  0.00    -0.051 C 
HETATM   58  C   LIG     1      -7.871  11.268  68.695  1.00  0.00    -0.040 C 
HETATM   59  H   LIG     1      -7.458  11.752  66.633  1.00  0.00     0.034 H 
HETATM   60  H   LIG     1      -6.310  10.642  67.358  1.00  0.00     0.034 H 
HETATM   61  C   LIG     1      -8.024  10.098  69.666  1.00  0.00     0.035 C 
HETATM   62  H   LIG     1      -8.835  11.779  68.598  1.00  0.00     0.036 H 
HETATM   63  H   LIG     1      -7.164  11.998  69.116  1.00  0.00     0.036 H 
HETATM   64  C   LIG     1      -8.662   8.855  69.025  1.00  0.00    -0.040 C 
HETATM   65  H   LIG     1      -8.652  10.414  70.505  1.00  0.00     0.082 H 
HETATM   66  C   LIG     1      -8.037   8.504  67.677  1.00  0.00    -0.051 C 
HETATM   67  H   LIG     1      -9.736   9.029  68.887  1.00  0.00     0.036 H 
HETATM   68  H   LIG     1      -8.550   7.998  69.697  1.00  0.00     0.036 H 
HETATM   69  H   LIG     1      -8.513   7.604  67.279  1.00  0.00     0.034 H 
HETATM   70  H   LIG     1      -6.982   8.240  67.827  1.00  0.00     0.034 H 
HETATM   71  H   LIG     1      -7.569   9.387  65.779  1.00  0.00     0.054 H 
BRANCH  61  72
HETATM   72  O   LIG     1      -6.757   9.767  70.223  1.00  0.00    -0.396 OA
HETATM   73  H   LIG     1      -6.373   9.028  69.730  1.00  0.00     0.210 HD
ENDBRANCH  61  72
ENDBRANCH  53  56
ENDBRANCH  49  52
ENDBRANCH  46  49
ENDBRANCH   3  46
TORSDOF 11
ENDMDL
MODEL 2
REMARK VINA RESULT:      -6.5      5.365     10.723
REMARK  11 active torsions:
REMARK  status: ('A' for Active; 'I' for Inactive)
REMARK    1  A    between atoms: N_1  and  S_2 
REMARK    2  A    between atoms: S_2  and  C_5 
REMARK    3  A    between atoms: C_8  and  C_9 
REMARK    4  A    between atoms: C_9  and  C_10 
REMARK    5  A    between atoms: C_14  and  N_15 
REMARK       I    between atoms: N_15  and  C_16 
REMARK       I    between atoms: C_16  and  N_18 
REMARK    6  A    between atoms: N_18  and  C_19 
REMARK    7  A    between atoms: C_21  and  C_22 
REMARK    8  A    between atoms: C_22  and  C_23 
REMARK    9  A    between atoms: C_23  and  N_24 
REMARK       I    between atoms: N_24  and  C_25 
REMARK   10  A    between atoms: C_25  and  C_27 
REMARK   11  A    between atoms: C_30  and  O_31 
ROOT
HETATM    1  C   LIG     1      -9.584  13.071  66.098  1.00  0.00     0.051 C 
HETATM    2  C   LIG     1     -10.290  12.020  65.653  1.00  0.00    -0.063 C 
HETATM    3  C   LIG     1      -9.948  10.591  66.034  1.00  0.00     0.045 C 
HETATM    4  C   LIG     1      -8.475  10.498  66.452  1.00  0.00     0.250 C 
HETATM    5  O   LIG     1      -7.820   9.490  66.193  1.00  0.00    -0.271 OA
HETATM    6  N   LIG     1      -7.965  11.524  67.207  1.00  0.00    -0.224 NA
HETATM    7  C   LIG     1      -8.470  12.701  67.026  1.00  0.00     0.031 C 
HETATM    8  H   LIG     1     -11.142  12.151  64.993  1.00  0.00     0.081 H 
HETATM    9  H   LIG     1     -10.057   9.973  65.134  1.00  0.00     0.061 H 
HETATM   10  H   LIG     1      -8.057  13.494  67.659  1.00  0.00     0.118 H 
ENDROOT
BRANCH   1  11
HETATM   11  N   LIG     1      -9.913  14.371  65.766  1.00  0.00    -0.308 N 
HETATM   12  C   LIG     1      -9.400  15.513  66.362  1.00  0.00     0.325 C 
HETATM   13  N   LIG     1      -9.898  16.686  65.814  1.00  0.00    -0.309 N 
HETATM   14  O   LIG     1      -8.578  15.470  67.268  1.00  0.00    -0.247 OA
HETATM   15  H   LIG     1     -10.259  16.634  64.872  1.00  0.00     0.170 HD
HETATM   16  H   LIG     1     -10.590  14.499  65.029  1.00  0.00     0.170 HD
BRANCH  13  17
HETATM   17  C   LIG     1      -9.548  17.978  66.298  1.00  0.00     0.036 A 
HETATM   18  C   LIG     1     -10.376  18.688  67.172  1.00  0.00    -0.057 A 
HETATM   19  C   LIG     1      -9.947  19.869  67.761  1.00  0.00    -0.080 A 
HETATM   20  H   LIG     1     -11.366  18.333  67.441  1.00  0.00     0.086 H 
HETATM   21  C   LIG     1      -8.695  20.386  67.449  1.00  0.00    -0.076 A 
HETATM   22  H   LIG     1     -10.582  20.369  68.489  1.00  0.00     0.083 H 
HETATM   23  C   LIG     1      -7.874  19.760  66.500  1.00  0.00    -0.052 A 
HETATM   24  H   LIG     1      -8.378  21.285  67.970  1.00  0.00     0.084 H 
HETATM   25  C   LIG     1      -8.318  18.547  65.927  1.00  0.00    -0.051 A 
HETATM   26  H   LIG     1      -7.669  18.026  65.226  1.00  0.00     0.087 H 
BRANCH  23  27
HETATM   27  C   LIG     1      -6.489  20.293  66.181  1.00  0.00    -0.017 C 
HETATM   28  H   LIG     1      -6.433  21.338  66.510  1.00  0.00     0.047 H 
HETATM   29  H   LIG     1      -5.741  19.746  66.770  1.00  0.00     0.047 H 
BRANCH  27  30
HETATM   30  C   LIG     1      -6.086  20.205  64.715  1.00  0.00    -0.054 A 
HETATM   31  C   LIG     1      -5.420  19.070  64.225  1.00  0.00    -0.075 A 
HETATM   32  C   LIG     1      -5.127  18.935  62.864  1.00  0.00    -0.060 A 
HETATM   33  H   LIG     1      -5.138  18.273  64.916  1.00  0.00     0.084 H 
HETATM   34  C   LIG     1      -5.513  19.943  61.979  1.00  0.00     0.074 A 
HETATM   35  H   LIG     1      -4.599  18.041  62.534  1.00  0.00     0.085 H 
HETATM   36  C   LIG     1      -6.155  21.097  62.450  1.00  0.00    -0.060 A 
HETATM   37  C   LIG     1      -6.440  21.222  63.814  1.00  0.00    -0.075 A 
HETATM   38  H   LIG     1      -6.437  21.893  61.765  1.00  0.00     0.085 H 
HETATM   39  H   LIG     1      -6.966  22.110  64.166  1.00  0.00     0.084 H 
BRANCH  34  40
HETATM   40  S   LIG     1      -5.196  19.810  60.228  1.00  0.00     0.239 S 
HETATM   41  O   LIG     1      -4.914  18.413  59.918  1.00  0.00    -0.206 OA
HETATM   42  O   LIG     1      -4.285  20.861  59.884  1.00  0.00    -0.206 OA
BRANCH  40  43
HETATM   43  N   LIG     1      -6.711  20.218  59.577  1.00  0.00    -0.225 NA
HETATM   44  H   LIG     1      -6.709  20.512  58.599  1.00  0.00     0.136 HD
HETATM   45  H   LIG     1      -7.472  19.562  59.788  1.00  0.00     0.136 HD
ENDBRANCH  40  43
ENDBRANCH  34  40
ENDBRANCH  27  30
ENDBRANCH  23  27
ENDBRANCH  13  17
ENDBRANCH   1  11
BRANCH   3  46
HETATM   46  C   LIG     1     -10.883  10.079  67.146  1.00  0.00    -0.036 C 
HETATM   47  H   LIG     1     -11.920  10.153  66.793  1.00  0.00     0.037 H 
HETATM   48  H   LIG     1     -10.812  10.735  68.025  1.00  0.00     0.037 H 
BRANCH  46  49
HETATM   49  C   LIG     1     -10.600   8.635  67.586  1.00  0.00    -0.004 C 
HETATM   50  H   LIG     1      -9.582   8.344  67.310  1.00  0.00     0.064 H 
HETATM   51  H   LIG     1     -11.301   7.941  67.111  1.00  0.00     0.064 H 
BRANCH  49  52
HETATM   52  N   LIG     1     -10.684   8.467  69.035  1.00  0.00    -0.361 N 
HETATM   53  C   LIG     1     -11.023   7.283  69.645  1.00  0.00     0.221 C 
HETATM   54  O   LIG     1     -11.314   6.273  69.005  1.00  0.00    -0.273 OA
HETATM   55  H   LIG     1     -10.349   9.240  69.603  1.00  0.00     0.162 HD
BRANCH  53  56
HETATM   56  C   LIG     1     -11.110   7.349  71.189  1.00  0.00     0.024 C 
HETATM   57  C   LIG     1     -11.079   8.787  71.735  1.00  0.00    -0.051 C 
HETATM   58  C   LIG     1     -12.388   9.558  71.530  1.00  0.00    -0.040 C 
HETATM   59  H   LIG     1     -10.253   9.352  71.285  1.00  0.00     0.034 H 
HETATM   60  H   LIG     1     -10.867   8.744  72.812  1.00  0.00     0.034 H 
HETATM   61  C   LIG     1     -13.651   8.788  71.913  1.00  0.00     0.035 C 
HETATM   62  H   LIG     1     -12.457   9.856  70.478  1.00  0.00     0.036 H 
HETATM   63  H   LIG     1     -12.335  10.485  72.120  1.00  0.00     0.036 H 
HETATM   64  C   LIG     1     -13.631   7.321  71.457  1.00  0.00    -0.040 C 
HETATM   65  H   LIG     1     -14.517   9.280  71.457  1.00  0.00     0.082 H 
HETATM   66  C   LIG     1     -12.317   6.620  71.792  1.00  0.00    -0.051 C 
HETATM   67  H   LIG     1     -13.795   7.276  70.373  1.00  0.00     0.036 H 
HETATM   68  H   LIG     1     -14.450   6.776  71.937  1.00  0.00     0.036 H 
HETATM   69  H   LIG     1     -12.366   5.578  71.464  1.00  0.00     0.034 H 
HETATM   70  H   LIG     1     -12.196   6.584  72.882  1.00  0.00     0.034 H 
HETATM   71  H   LIG     1     -10.198   6.849  71.542  1.00  0.00     0.054 H 
BRANCH  61  72
HETATM   72  O   LIG     1     -13.851   8.862  73.320  1.00  0.00    -0.396 OA
HETATM   73  H   LIG     1     -12.994   8.823  73.768  1.00  0.00     0.210 HD
ENDBRANCH  61  72
ENDBRANCH  53  56
ENDBRANCH  49  52
ENDBRANCH  46  49
ENDBRANCH   3  46
TORSDOF 11
ENDMDL
MODEL 3
REMARK VINA RESULT:      -6.2      4.181      7.037
REMARK  11 active torsions:
REMARK  status: ('A' for Active; 'I' for Inactive)
REMARK    1  A    between atoms: N_1  and  S_2 
REMARK    2  A    between atoms: S_2  and  C_5 
REMARK    3  A    between atoms: C_8  and  C_9 
REMARK    4  A    between atoms: C_9  and  C_10 
REMARK    5  A    between atoms: C_14  and  N_15 
REMARK       I    between atoms: N_15  and  C_16 
REMARK       I    between atoms: C_16  and  N_18 
REMARK    6  A    between atoms: N_18  and  C_19 
REMARK    7  A    between atoms: C_21  and  C_22 
REMARK    8  A    between atoms: C_22  and  C_23 
REMARK    9  A    between atoms: C_23  and  N_24 
REMARK       I    between atoms: N_24  and  C_25 
REMARK   10  A    between atoms: C_25  and  C_27 
REMARK   11  A    between atoms: C_30  and  O_31 
ROOT
HETATM    1  C   LIG     1     -10.647  12.497  66.314  1.00  0.00     0.051 C 
HETATM    2  C   LIG     1     -10.086  13.588  66.858  1.00  0.00    -0.063 C 
HETATM    3  C   LIG     1     -10.567  14.992  66.544  1.00  0.00     0.045 C 
HETATM    4  C   LIG     1     -11.296  15.007  65.195  1.00  0.00     0.250 C 
HETATM    5  O   LIG     1     -11.211  15.985  64.454  1.00  0.00    -0.271 OA
HETATM    6  N   LIG     1     -12.119  13.947  64.908  1.00  0.00    -0.224 NA
HETATM    7  C   LIG     1     -11.804  12.799  65.414  1.00  0.00     0.031 C 
HETATM    8  H   LIG     1      -9.254  13.508  67.551  1.00  0.00     0.081 H 
HETATM    9  H   LIG     1      -9.680  15.628  66.426  1.00  0.00     0.061 H 
HETATM   10  H   LIG     1     -12.492  11.977  65.184  1.00  0.00     0.118 H 
ENDROOT
BRANCH   1  11
HETATM   11  N   LIG     1     -10.220  11.220  66.621  1.00  0.00    -0.308 N 
HETATM   12  C   LIG     1     -10.801  10.374  67.554  1.00  0.00     0.325 C 
HETATM   13  N   LIG     1     -10.171   9.141  67.641  1.00  0.00    -0.309 N 
HETATM   14  O   LIG     1     -11.782  10.695  68.213  1.00  0.00    -0.247 OA
HETATM   15  H   LIG     1      -9.638   8.841  66.836  1.00  0.00     0.170 HD
HETATM   16  H   LIG     1      -9.411  10.875  66.125  1.00  0.00     0.170 HD
BRANCH  13  17
HETATM   17  C   LIG     1     -10.566   8.132  68.563  1.00  0.00     0.036 A 
HETATM   18  C   LIG     1     -10.644   6.786  68.196  1.00  0.00    -0.057 A 
HETATM   19  C   LIG     1     -10.870   5.799  69.145  1.00  0.00    -0.080 A 
HETATM   20  H   LIG     1     -10.506   6.462  67.168  1.00  0.00     0.086 H 
HETATM   21  C   LIG     1     -11.068   6.147  70.476  1.00  0.00    -0.076 A 
HETATM   22  H   LIG     1     -10.860   4.753  68.846  1.00  0.00     0.083 H 
HETATM   23  C   LIG     1     -11.099   7.492  70.870  1.00  0.00    -0.052 A 
HETATM   24  H   LIG     1     -11.192   5.341  71.193  1.00  0.00     0.084 H 
HETATM   25  C   LIG     1     -10.845   8.482  69.895  1.00  0.00    -0.051 A 
HETATM   26  H   LIG     1     -10.818   9.527  70.198  1.00  0.00     0.087 H 
BRANCH  23  27
HETATM   27  C   LIG     1     -11.274   7.883  72.327  1.00  0.00    -0.017 C 
HETATM   28  H   LIG     1     -11.420   8.969  72.381  1.00  0.00     0.047 H 
HETATM   29  H   LIG     1     -12.194   7.431  72.719  1.00  0.00     0.047 H 
BRANCH  27  30
HETATM   30  C   LIG     1     -10.127   7.483  73.244  1.00  0.00    -0.054 A 
HETATM   31  C   LIG     1      -8.904   8.172  73.198  1.00  0.00    -0.075 A 
HETATM   32  C   LIG     1      -7.874   7.877  74.097  1.00  0.00    -0.060 A 
HETATM   33  H   LIG     1      -8.759   8.960  72.456  1.00  0.00     0.084 H 
HETATM   34  C   LIG     1      -8.071   6.887  75.062  1.00  0.00     0.074 A 
HETATM   35  H   LIG     1      -6.939   8.431  74.015  1.00  0.00     0.085 H 
HETATM   36  C   LIG     1      -9.274   6.169  75.109  1.00  0.00    -0.060 A 
HETATM   37  C   LIG     1     -10.296   6.470  74.202  1.00  0.00    -0.075 A 
HETATM   38  H   LIG     1      -9.422   5.383  75.846  1.00  0.00     0.085 H 
HETATM   39  H   LIG     1     -11.238   5.927  74.266  1.00  0.00     0.084 H 
BRANCH  34  40
HETATM   40  S   LIG     1      -6.806   6.492  76.256  1.00  0.00     0.239 S 
HETATM   41  O   LIG     1      -7.024   7.310  77.444  1.00  0.00    -0.206 OA
HETATM   42  O   LIG     1      -5.555   6.488  75.558  1.00  0.00    -0.206 OA
BRANCH  40  43
HETATM   43  N   LIG     1      -7.184   4.878  76.630  1.00  0.00    -0.225 NA
HETATM   44  H   LIG     1      -7.043   4.204  75.875  1.00  0.00     0.136 HD
HETATM   45  H   LIG     1      -6.827   4.540  77.531  1.00  0.00     0.136 HD
ENDBRANCH  40  43
ENDBRANCH  34  40
ENDBRANCH  27  30
ENDBRANCH  23  27
ENDBRANCH  13  17
ENDBRANCH   1  11
BRANCH   3  46
HETATM   46  C   LIG     1     -11.463  15.534  67.675  1.00  0.00    -0.036 C 
HETATM   47  H   LIG     1     -12.200  14.764  67.936  1.00  0.00     0.037 H 
HETATM   48  H   LIG     1     -12.039  16.397  67.314  1.00  0.00     0.037 H 
BRANCH  46  49
HETATM   49  C   LIG     1     -10.694  15.948  68.938  1.00  0.00    -0.004 C 
HETATM   50  H   LIG     1      -9.768  15.373  69.027  1.00  0.00     0.064 H 
HETATM   51  H   LIG     1     -11.299  15.776  69.834  1.00  0.00     0.064 H 
BRANCH  49  52
HETATM   52  N   LIG     1     -10.290  17.352  68.910  1.00  0.00    -0.361 N 
HETATM   53  C   LIG     1      -9.040  17.777  68.528  1.00  0.00     0.221 C 
HETATM   54  O   LIG     1      -8.149  16.992  68.206  1.00  0.00    -0.273 OA
HETATM   55  H   LIG     1     -11.023  18.040  69.064  1.00  0.00     0.162 HD
BRANCH  53  56
HETATM   56  C   LIG     1      -8.812  19.304  68.634  1.00  0.00     0.024 C 
HETATM   57  C   LIG     1      -7.345  19.680  68.904  1.00  0.00    -0.051 C 
HETATM   58  C   LIG     1      -6.430  19.528  67.684  1.00  0.00    -0.040 C 
HETATM   59  H   LIG     1      -6.941  19.084  69.733  1.00  0.00     0.034 H 
HETATM   60  H   LIG     1      -7.310  20.725  69.236  1.00  0.00     0.034 H 
HETATM   61  C   LIG     1      -6.983  20.125  66.391  1.00  0.00     0.035 C 
HETATM   62  H   LIG     1      -6.230  18.462  67.526  1.00  0.00     0.036 H 
HETATM   63  H   LIG     1      -5.465  20.002  67.918  1.00  0.00     0.036 H 
HETATM   64  C   LIG     1      -8.478  19.838  66.178  1.00  0.00    -0.040 C 
HETATM   65  H   LIG     1      -6.428  19.711  65.543  1.00  0.00     0.082 H 
HETATM   66  C   LIG     1      -9.311  20.109  67.428  1.00  0.00    -0.051 C 
HETATM   67  H   LIG     1      -8.606  18.790  65.882  1.00  0.00     0.036 H 
HETATM   68  H   LIG     1      -8.858  20.460  65.362  1.00  0.00     0.036 H 
HETATM   69  H   LIG     1     -10.364  19.908  67.214  1.00  0.00     0.034 H 
HETATM   70  H   LIG     1      -9.257  21.178  67.672  1.00  0.00     0.034 H 
HETATM   71  H   LIG     1      -9.393  19.613  69.514  1.00  0.00     0.054 H 
BRANCH  61  72
HETATM   72  O   LIG     1      -6.746  21.529  66.370  1.00  0.00    -0.396 OA
HETATM   73  H   LIG     1      -6.878  21.862  65.471  1.00  0.00     0.210 HD
ENDBRANCH  61  72
ENDBRANCH  53  56
ENDBRANCH  49  52
ENDBRANCH  46  49
ENDBRANCH   3  46
TORSDOF 11
ENDMDL
MODEL 4
REMARK VINA RESULT:      -5.9      4.169      6.666
REMARK  11 active torsions:
REMARK  status: ('A' for Active; 'I' for Inactive)
REMARK    1  A    between atoms: N_1  and  S_2 
REMARK    2  A    between atoms: S_2  and  C_5 
REMARK    3  A    between atoms: C_8  and  C_9 
REMARK    4  A    between atoms: C_9  and  C_10 
REMARK    5  A    between atoms: C_14  and  N_15 
REMARK       I    between atoms: N_15  and  C_16 
REMARK       I    between atoms: C_16  and  N_18 
REMARK    6  A    between atoms: N_18  and  C_19 
REMARK    7  A    between atoms: C_21  and  C_22 
REMARK    8  A    between atoms: C_22  and  C_23 
REMARK    9  A    between atoms: C_23  and  N_24 
REMARK       I    between atoms: N_24  and  C_25 
REMARK   10  A    between atoms: C_25  and  C_27 
REMARK   11  A    between atoms: C_30  and  O_31 
ROOT
HETATM    1  C   LIG     1     -10.596  12.669  65.779  1.00  0.00     0.051 C 
HETATM    2  C   LIG     1      -9.975  13.685  66.399  1.00  0.00    -0.063 C 
HETATM    3  C   LIG     1     -10.454  15.120  66.286  1.00  0.00     0.045 C 
HETATM    4  C   LIG     1     -11.286  15.296  65.010  1.00  0.00     0.250 C 
HETATM    5  O   LIG     1     -11.241  16.353  64.381  1.00  0.00    -0.271 OA
HETATM    6  N   LIG     1     -12.147  14.284  64.670  1.00  0.00    -0.224 NA
HETATM    7  C   LIG     1     -11.814  13.083  65.014  1.00  0.00     0.031 C 
HETATM    8  H   LIG     1      -9.093  13.518  67.010  1.00  0.00     0.081 H 
HETATM    9  H   LIG     1      -9.568  15.758  66.172  1.00  0.00     0.061 H 
HETATM   10  H   LIG     1     -12.532  12.299  64.748  1.00  0.00     0.118 H 
ENDROOT
BRANCH   1  11
HETATM   11  N   LIG     1     -10.169  11.361  65.903  1.00  0.00    -0.308 N 
HETATM   12  C   LIG     1     -10.672  10.427  66.797  1.00  0.00     0.325 C 
HETATM   13  N   LIG     1     -10.064   9.185  66.687  1.00  0.00    -0.309 N 
HETATM   14  O   LIG     1     -11.573  10.686  67.583  1.00  0.00    -0.247 OA
HETATM   15  H   LIG     1      -9.623   8.967  65.804  1.00  0.00     0.170 HD
HETATM   16  H   LIG     1      -9.422  11.063  65.294  1.00  0.00     0.170 HD
BRANCH  13  17
HETATM   17  C   LIG     1     -10.386   8.086  67.533  1.00  0.00     0.036 A 
HETATM   18  C   LIG     1     -10.685   6.821  67.019  1.00  0.00    -0.057 A 
HETATM   19  C   LIG     1     -10.834   5.727  67.859  1.00  0.00    -0.080 A 
HETATM   20  H   LIG     1     -10.783   6.643  65.953  1.00  0.00     0.086 H 
HETATM   21  C   LIG     1     -10.734   5.888  69.236  1.00  0.00    -0.076 A 
HETATM   22  H   LIG     1     -11.000   4.740  67.433  1.00  0.00     0.083 H 
HETATM   23  C   LIG     1     -10.537   7.158  69.798  1.00  0.00    -0.052 A 
HETATM   24  H   LIG     1     -10.808   4.998  69.854  1.00  0.00     0.084 H 
HETATM   25  C   LIG     1     -10.364   8.257  68.928  1.00  0.00    -0.051 A 
HETATM   26  H   LIG     1     -10.162   9.239  69.350  1.00  0.00     0.087 H 
BRANCH  23  27
HETATM   27  C   LIG     1     -10.385   7.341  71.298  1.00  0.00    -0.017 C 
HETATM   28  H   LIG     1      -9.524   7.996  71.484  1.00  0.00     0.047 H 
HETATM   29  H   LIG     1     -11.263   7.870  71.693  1.00  0.00     0.047 H 
BRANCH  27  30
HETATM   30  C   LIG     1     -10.217   6.053  72.091  1.00  0.00    -0.054 A 
HETATM   31  C   LIG     1      -8.936   5.536  72.347  1.00  0.00    -0.075 A 
HETATM   32  C   LIG     1      -8.761   4.405  73.151  1.00  0.00    -0.060 A 
HETATM   33  H   LIG     1      -8.061   6.032  71.922  1.00  0.00     0.084 H 
HETATM   34  C   LIG     1      -9.879   3.788  73.716  1.00  0.00     0.074 A 
HETATM   35  H   LIG     1      -7.749   4.035  73.313  1.00  0.00     0.085 H 
HETATM   36  C   LIG     1     -11.168   4.272  73.453  1.00  0.00    -0.060 A 
HETATM   37  C   LIG     1     -11.331   5.401  72.643  1.00  0.00    -0.075 A 
HETATM   38  H   LIG     1     -12.042   3.780  73.874  1.00  0.00     0.085 H 
HETATM   39  H   LIG     1     -12.335   5.787  72.468  1.00  0.00     0.084 H 
BRANCH  34  40
HETATM   40  S   LIG     1      -9.713   2.364  74.778  1.00  0.00     0.239 S 
HETATM   41  O   LIG     1      -8.364   1.832  74.625  1.00  0.00    -0.206 OA
HETATM   42  O   LIG     1     -10.876   1.552  74.577  1.00  0.00    -0.206 OA
BRANCH  40  43
HETATM   43  N   LIG     1      -9.848   3.071  76.318  1.00  0.00    -0.225 NA
HETATM   44  H   LIG     1      -9.339   2.601  77.068  1.00  0.00     0.136 HD
HETATM   45  H   LIG     1      -9.734   4.092  76.345  1.00  0.00     0.136 HD
ENDBRANCH  40  43
ENDBRANCH  34  40
ENDBRANCH  27  30
ENDBRANCH  23  27
ENDBRANCH  13  17
ENDBRANCH   1  11
BRANCH   3  46
HETATM   46  C   LIG     1     -11.249  15.536  67.539  1.00  0.00    -0.036 C 
HETATM   47  H   LIG     1     -11.919  14.712  67.816  1.00  0.00     0.037 H 
HETATM   48  H   LIG     1     -11.898  16.391  67.302  1.00  0.00     0.037 H 
BRANCH  46  49
HETATM   49  C   LIG     1     -10.371  15.902  68.744  1.00  0.00    -0.004 C 
HETATM   50  H   LIG     1      -9.439  15.330  68.726  1.00  0.00     0.064 H 
HETATM   51  H   LIG     1     -10.893  15.688  69.683  1.00  0.00     0.064 H 
BRANCH  49  52
HETATM   52  N   LIG     1      -9.976  17.309  68.739  1.00  0.00    -0.361 N 
HETATM   53  C   LIG     1      -8.678  17.734  68.590  1.00  0.00     0.221 C 
HETATM   54  O   LIG     1      -7.737  16.948  68.478  1.00  0.00    -0.273 OA
HETATM   55  H   LIG     1     -10.728  17.993  68.722  1.00  0.00     0.162 HD
BRANCH  53  56
HETATM   56  C   LIG     1      -8.482  19.267  68.678  1.00  0.00     0.024 C 
HETATM   57  C   LIG     1      -7.003  19.684  68.758  1.00  0.00    -0.051 C 
HETATM   58  C   LIG     1      -6.251  19.565  67.427  1.00  0.00    -0.040 C 
HETATM   59  H   LIG     1      -6.478  19.096  69.521  1.00  0.00     0.034 H 
HETATM   60  H   LIG     1      -6.955  20.729  69.091  1.00  0.00     0.034 H 
HETATM   61  C   LIG     1      -6.985  20.151  66.222  1.00  0.00     0.035 C 
HETATM   62  H   LIG     1      -6.043  18.505  67.236  1.00  0.00     0.036 H 
HETATM   63  H   LIG     1      -5.278  20.065  67.538  1.00  0.00     0.036 H 
HETATM   64  C   LIG     1      -8.486  19.821  66.203  1.00  0.00    -0.040 C 
HETATM   65  H   LIG     1      -6.534  19.757  65.306  1.00  0.00     0.082 H 
HETATM   66  C   LIG     1      -9.156  20.062  67.554  1.00  0.00    -0.051 C 
HETATM   67  H   LIG     1      -8.622  18.771  65.918  1.00  0.00     0.036 H 
HETATM   68  H   LIG     1      -8.988  20.435  65.449  1.00  0.00     0.036 H 
HETATM   69  H   LIG     1     -10.222  19.831  67.477  1.00  0.00     0.034 H 
HETATM   70  H   LIG     1      -9.101  21.131  67.798  1.00  0.00     0.034 H 
HETATM   71  H   LIG     1      -8.951  19.555  69.628  1.00  0.00     0.054 H 
BRANCH  61  72
HETATM   72  O   LIG     1      -6.793  21.561  66.182  1.00  0.00    -0.396 OA
HETATM   73  H   LIG     1      -5.874  21.752  65.945  1.00  0.00     0.210 HD
ENDBRANCH  61  72
ENDBRANCH  53  56
ENDBRANCH  49  52
ENDBRANCH  46  49
ENDBRANCH   3  46
TORSDOF 11
ENDMDL
MODEL 5
REMARK VINA RESULT:      -5.9      3.482      9.422
REMARK  11 active torsions:
REMARK  status: ('A' for Active; 'I' for Inactive)
REMARK    1  A    between atoms: N_1  and  S_2 
REMARK    2  A    between atoms: S_2  and  C_5 
REMARK    3  A    between atoms: C_8  and  C_9 
REMARK    4  A    between atoms: C_9  and  C_10 
REMARK    5  A    between atoms: C_14  and  N_15 
REMARK       I    between atoms: N_15  and  C_16 
REMARK       I    between atoms: C_16  and  N_18 
REMARK    6  A    between atoms: N_18  and  C_19 
REMARK    7  A    between atoms: C_21  and  C_22 
REMARK    8  A    between atoms: C_22  and  C_23 
REMARK    9  A    between atoms: C_23  and  N_24 
REMARK       I    between atoms: N_24  and  C_25 
REMARK   10  A    between atoms: C_25  and  C_27 
REMARK   11  A    between atoms: C_30  and  O_31 
ROOT
HETATM    1  C   LIG     1      -9.367   7.108  67.044  1.00  0.00     0.051 C 
HETATM    2  C   LIG     1     -10.503   6.659  67.602  1.00  0.00    -0.063 C 
HETATM    3  C   LIG     1     -10.513   5.585  68.674  1.00  0.00     0.045 C 
HETATM    4  C   LIG     1      -9.231   4.747  68.589  1.00  0.00     0.250 C 
HETATM    5  O   LIG     1      -9.258   3.544  68.843  1.00  0.00    -0.271 OA
HETATM    6  N   LIG     1      -8.058   5.409  68.329  1.00  0.00    -0.224 NA
HETATM    7  C   LIG     1      -8.130   6.481  67.608  1.00  0.00     0.031 C 
HETATM    8  H   LIG     1     -11.470   7.050  67.303  1.00  0.00     0.081 H 
HETATM    9  H   LIG     1     -11.346   4.904  68.453  1.00  0.00     0.061 H 
HETATM   10  H   LIG     1      -7.180   7.000  67.436  1.00  0.00     0.118 H 
ENDROOT
BRANCH   1  11
HETATM   11  N   LIG     1      -9.362   8.102  66.086  1.00  0.00    -0.308 N 
HETATM   12  C   LIG     1     -10.075   9.289  66.147  1.00  0.00     0.325 C 
HETATM   13  N   LIG     1      -9.864  10.110  65.049  1.00  0.00    -0.309 N 
HETATM   14  O   LIG     1     -10.799   9.575  67.092  1.00  0.00    -0.247 OA
HETATM   15  H   LIG     1      -9.007   9.972  64.531  1.00  0.00     0.170 HD
HETATM   16  H   LIG     1      -8.792   7.946  65.267  1.00  0.00     0.170 HD
BRANCH  13  17
HETATM   17  C   LIG     1     -10.527  11.358  64.874  1.00  0.00     0.036 A 
HETATM   18  C   LIG     1     -11.169  11.692  63.679  1.00  0.00    -0.057 A 
HETATM   19  C   LIG     1     -11.948  12.836  63.582  1.00  0.00    -0.080 A 
HETATM   20  H   LIG     1     -11.106  11.061  62.797  1.00  0.00     0.086 H 
HETATM   21  C   LIG     1     -12.059  13.695  64.669  1.00  0.00    -0.076 A 
HETATM   22  H   LIG     1     -12.491  13.041  62.663  1.00  0.00     0.083 H 
HETATM   23  C   LIG     1     -11.349  13.451  65.854  1.00  0.00    -0.052 A 
HETATM   24  H   LIG     1     -12.717  14.553  64.568  1.00  0.00     0.084 H 
HETATM   25  C   LIG     1     -10.580  12.269  65.943  1.00  0.00    -0.051 A 
HETATM   26  H   LIG     1     -10.064  12.043  66.873  1.00  0.00     0.087 H 
BRANCH  23  27
HETATM   27  C   LIG     1     -11.495  14.359  67.062  1.00  0.00    -0.017 C 
HETATM   28  H   LIG     1     -12.548  14.654  67.151  1.00  0.00     0.047 H 
HETATM   29  H   LIG     1     -11.256  13.796  67.974  1.00  0.00     0.047 H 
BRANCH  27  30
HETATM   30  C   LIG     1     -10.623  15.607  67.039  1.00  0.00    -0.054 A 
HETATM   31  C   LIG     1      -9.545  15.707  66.144  1.00  0.00    -0.075 A 
HETATM   32  C   LIG     1      -8.794  16.883  66.047  1.00  0.00    -0.060 A 
HETATM   33  H   LIG     1      -9.297  14.857  65.505  1.00  0.00     0.084 H 
HETATM   34  C   LIG     1      -9.130  17.977  66.846  1.00  0.00     0.074 A 
HETATM   35  H   LIG     1      -7.960  16.909  65.346  1.00  0.00     0.085 H 
HETATM   36  C   LIG     1     -10.187  17.891  67.763  1.00  0.00    -0.060 A 
HETATM   37  C   LIG     1     -10.928  16.708  67.855  1.00  0.00    -0.075 A 
HETATM   38  H   LIG     1     -10.437  18.734  68.403  1.00  0.00     0.085 H 
HETATM   39  H   LIG     1     -11.766  16.660  68.551  1.00  0.00     0.084 H 
BRANCH  34  40
HETATM   40  S   LIG     1      -8.230  19.514  66.740  1.00  0.00     0.239 S 
HETATM   41  O   LIG     1      -7.283  19.416  65.634  1.00  0.00    -0.206 OA
HETATM   42  O   LIG     1      -7.811  19.849  68.069  1.00  0.00    -0.206 OA
BRANCH  40  43
HETATM   43  N   LIG     1      -9.462  20.600  66.307  1.00  0.00    -0.225 NA
HETATM   44  H   LIG     1      -9.173  21.392  65.729  1.00  0.00     0.136 HD
HETATM   45  H   LIG     1     -10.333  20.169  65.974  1.00  0.00     0.136 HD
ENDBRANCH  40  43
ENDBRANCH  34  40
ENDBRANCH  27  30
ENDBRANCH  23  27
ENDBRANCH  13  17
ENDBRANCH   1  11
BRANCH   3  46
HETATM   46  C   LIG     1     -10.691   6.204  70.073  1.00  0.00    -0.036 C 
HETATM   47  H   LIG     1     -10.135   5.595  70.798  1.00  0.00     0.037 H 
HETATM   48  H   LIG     1     -11.746   6.149  70.374  1.00  0.00     0.037 H 
BRANCH  46  49
HETATM   49  C   LIG     1     -10.224   7.663  70.176  1.00  0.00    -0.004 C 
HETATM   50  H   LIG     1      -9.493   7.886  69.393  1.00  0.00     0.064 H 
HETATM   51  H   LIG     1      -9.762   7.855  71.149  1.00  0.00     0.064 H 
BRANCH  49  52
HETATM   52  N   LIG     1     -11.318   8.613  69.983  1.00  0.00    -0.361 N 
HETATM   53  C   LIG     1     -11.911   9.309  71.008  1.00  0.00     0.221 C 
HETATM   54  O   LIG     1     -11.579   9.158  72.184  1.00  0.00    -0.273 OA
HETATM   55  H   LIG     1     -11.552   8.849  69.022  1.00  0.00     0.162 HD
BRANCH  53  56
HETATM   56  C   LIG     1     -13.091  10.215  70.582  1.00  0.00     0.024 C 
HETATM   57  C   LIG     1     -13.590  11.131  71.713  1.00  0.00    -0.051 C 
HETATM   58  C   LIG     1     -12.660  12.314  72.009  1.00  0.00    -0.040 C 
HETATM   59  H   LIG     1     -13.745  10.557  72.635  1.00  0.00     0.034 H 
HETATM   60  H   LIG     1     -14.574  11.526  71.431  1.00  0.00     0.034 H 
HETATM   61  C   LIG     1     -12.180  13.076  70.774  1.00  0.00     0.035 C 
HETATM   62  H   LIG     1     -11.788  11.945  72.560  1.00  0.00     0.036 H 
HETATM   63  H   LIG     1     -13.191  13.007  72.679  1.00  0.00     0.036 H 
HETATM   64  C   LIG     1     -11.785  12.157  69.607  1.00  0.00    -0.040 C 
HETATM   65  H   LIG     1     -11.310  13.681  71.047  1.00  0.00     0.082 H 
HETATM   66  C   LIG     1     -12.822  11.070  69.339  1.00  0.00    -0.051 C 
HETATM   67  H   LIG     1     -10.820  11.684  69.830  1.00  0.00     0.036 H 
HETATM   68  H   LIG     1     -11.657  12.752  68.698  1.00  0.00     0.036 H 
HETATM   69  H   LIG     1     -12.500  10.461  68.490  1.00  0.00     0.034 H 
HETATM   70  H   LIG     1     -13.764  11.541  69.026  1.00  0.00     0.034 H 
HETATM   71  H   LIG     1     -13.908   9.518  70.347  1.00  0.00     0.054 H 
BRANCH  61  72
HETATM   72  O   LIG     1     -13.184  13.994  70.356  1.00  0.00    -0.396 OA
HETATM   73  H   LIG     1     -14.021  13.522  70.238  1.00  0.00     0.210 HD
ENDBRANCH  61  72
ENDBRANCH  53  56
ENDBRANCH  49  52
ENDBRANCH  46  49
ENDBRANCH   3  46
TORSDOF 11
ENDMDL
MODEL 6
REMARK VINA RESULT:      -5.8      4.229      6.250
REMARK  11 active torsions:
REMARK  status: ('A' for Active; 'I' for Inactive)
REMARK    1  A    between atoms: N_1  and  S_2 
REMARK    2  A    between atoms: S_2  and  C_5 
REMARK    3  A    between atoms: C_8  and  C_9 
REMARK    4  A    between atoms: C_9  and  C_10 
REMARK    5  A    between atoms: C_14  and  N_15 
REMARK       I    between atoms: N_15  and  C_16 
REMARK       I    between atoms: C_16  and  N_18 
REMARK    6  A    between atoms: N_18  and  C_19 
REMARK    7  A    between atoms: C_21  and  C_22 
REMARK    8  A    between atoms: C_22  and  C_23 
REMARK    9  A    between atoms: C_23  and  N_24 
REMARK       I    between atoms: N_24  and  C_25 
REMARK   10  A    between atoms: C_25  and  C_27 
REMARK   11  A    between atoms: C_30  and  O_31 
ROOT
HETATM    1  C   LIG     1     -11.457  12.862  66.801  1.00  0.00     0.051 C 
HETATM    2  C   LIG     1     -10.435  13.722  66.934  1.00  0.00    -0.063 C 
HETATM    3  C   LIG     1     -10.455  15.111  66.322  1.00  0.00     0.045 C 
HETATM    4  C   LIG     1     -11.438  15.149  65.145  1.00  0.00     0.250 C 
HETATM    5  O   LIG     1     -11.199  15.846  64.160  1.00  0.00    -0.271 OA
HETATM    6  N   LIG     1     -12.623  14.473  65.287  1.00  0.00    -0.224 NA
HETATM    7  C   LIG     1     -12.617  13.418  66.036  1.00  0.00     0.031 C 
HETATM    8  H   LIG     1      -9.542  13.454  67.490  1.00  0.00     0.081 H 
HETATM    9  H   LIG     1      -9.459  15.302  65.902  1.00  0.00     0.061 H 
HETATM   10  H   LIG     1     -13.582  12.912  66.146  1.00  0.00     0.118 H 
ENDROOT
BRANCH   1  11
HETATM   11  N   LIG     1     -11.443  11.608  67.380  1.00  0.00    -0.308 N 
HETATM   12  C   LIG     1     -11.676  11.333  68.719  1.00  0.00     0.325 C 
HETATM   13  N   LIG     1     -11.615   9.979  69.016  1.00  0.00    -0.309 N 
HETATM   14  O   LIG     1     -11.925  12.207  69.538  1.00  0.00    -0.247 OA
HETATM   15  H   LIG     1     -11.773   9.335  68.253  1.00  0.00     0.170 HD
HETATM   16  H   LIG     1     -11.240  10.826  66.775  1.00  0.00     0.170 HD
BRANCH  13  17
HETATM   17  C   LIG     1     -11.775   9.466  70.334  1.00  0.00     0.036 A 
HETATM   18  C   LIG     1     -13.002   9.520  71.003  1.00  0.00    -0.057 A 
HETATM   19  C   LIG     1     -13.182   8.871  72.216  1.00  0.00    -0.080 A 
HETATM   20  H   LIG     1     -13.859  10.043  70.589  1.00  0.00     0.086 H 
HETATM   21  C   LIG     1     -12.121   8.195  72.807  1.00  0.00    -0.076 A 
HETATM   22  H   LIG     1     -14.163   8.871  72.685  1.00  0.00     0.083 H 
HETATM   23  C   LIG     1     -10.847   8.202  72.220  1.00  0.00    -0.052 A 
HETATM   24  H   LIG     1     -12.318   7.659  73.731  1.00  0.00     0.084 H 
HETATM   25  C   LIG     1     -10.688   8.848  70.974  1.00  0.00    -0.051 A 
HETATM   26  H   LIG     1      -9.716   8.819  70.485  1.00  0.00     0.087 H 
BRANCH  23  27
HETATM   27  C   LIG     1      -9.692   7.433  72.835  1.00  0.00    -0.017 C 
HETATM   28  H   LIG     1      -8.835   7.486  72.151  1.00  0.00     0.047 H 
HETATM   29  H   LIG     1      -9.374   7.928  73.762  1.00  0.00     0.047 H 
BRANCH  27  30
HETATM   30  C   LIG     1      -9.987   5.975  73.158  1.00  0.00    -0.054 A 
HETATM   31  C   LIG     1     -10.059   5.018  72.133  1.00  0.00    -0.075 A 
HETATM   32  C   LIG     1     -10.238   3.661  72.422  1.00  0.00    -0.060 A 
HETATM   33  H   LIG     1      -9.962   5.336  71.093  1.00  0.00     0.084 H 
HETATM   34  C   LIG     1     -10.335   3.253  73.754  1.00  0.00     0.074 A 
HETATM   35  H   LIG     1     -10.299   2.957  71.592  1.00  0.00     0.085 H 
HETATM   36  C   LIG     1     -10.291   4.194  74.792  1.00  0.00    -0.060 A 
HETATM   37  C   LIG     1     -10.117   5.550  74.490  1.00  0.00    -0.075 A 
HETATM   38  H   LIG     1     -10.388   3.882  75.829  1.00  0.00     0.085 H 
HETATM   39  H   LIG     1     -10.054   6.270  75.305  1.00  0.00     0.084 H 
BRANCH  34  40
HETATM   40  S   LIG     1     -10.528   1.533  74.184  1.00  0.00     0.239 S 
HETATM   41  O   LIG     1     -11.912   1.148  73.928  1.00  0.00    -0.206 OA
HETATM   42  O   LIG     1      -9.915   1.348  75.465  1.00  0.00    -0.206 OA
BRANCH  40  43
HETATM   43  N   LIG     1      -9.532   0.781  73.031  1.00  0.00    -0.225 NA
HETATM   44  H   LIG     1      -9.936   0.673  72.098  1.00  0.00     0.136 HD
HETATM   45  H   LIG     1      -8.561   1.115  73.002  1.00  0.00     0.136 HD
ENDBRANCH  40  43
ENDBRANCH  34  40
ENDBRANCH  27  30
ENDBRANCH  23  27
ENDBRANCH  13  17
ENDBRANCH   1  11
BRANCH   3  46
HETATM   46  C   LIG     1     -10.800  16.175  67.380  1.00  0.00    -0.036 C 
HETATM   47  H   LIG     1     -11.858  16.067  67.653  1.00  0.00     0.037 H 
HETATM   48  H   LIG     1     -10.698  17.180  66.946  1.00  0.00     0.037 H 
BRANCH  46  49
HETATM   49  C   LIG     1      -9.939  16.098  68.649  1.00  0.00    -0.004 C 
HETATM   50  H   LIG     1      -9.349  15.177  68.655  1.00  0.00     0.064 H 
HETATM   51  H   LIG     1     -10.568  16.114  69.546  1.00  0.00     0.064 H 
BRANCH  49  52
HETATM   52  N   LIG     1      -8.974  17.191  68.736  1.00  0.00    -0.361 N 
HETATM   53  C   LIG     1      -7.707  17.131  68.208  1.00  0.00     0.221 C 
HETATM   54  O   LIG     1      -7.278  16.127  67.640  1.00  0.00    -0.273 OA
HETATM   55  H   LIG     1      -9.319  18.075  69.100  1.00  0.00     0.162 HD
BRANCH  53  56
HETATM   56  C   LIG     1      -6.833  18.381  68.471  1.00  0.00     0.024 C 
HETATM   57  C   LIG     1      -5.762  18.608  67.390  1.00  0.00    -0.051 C 
HETATM   58  C   LIG     1      -6.317  19.154  66.070  1.00  0.00    -0.040 C 
HETATM   59  H   LIG     1      -5.211  17.680  67.192  1.00  0.00     0.034 H 
HETATM   60  H   LIG     1      -5.024  19.323  67.778  1.00  0.00     0.034 H 
HETATM   61  C   LIG     1      -7.290  20.322  66.219  1.00  0.00     0.035 C 
HETATM   62  H   LIG     1      -6.820  18.338  65.538  1.00  0.00     0.036 H 
HETATM   63  H   LIG     1      -5.468  19.466  65.444  1.00  0.00     0.036 H 
HETATM   64  C   LIG     1      -8.291  20.139  67.370  1.00  0.00    -0.040 C 
HETATM   65  H   LIG     1      -7.853  20.436  65.287  1.00  0.00     0.082 H 
HETATM   66  C   LIG     1      -7.621  19.682  68.663  1.00  0.00    -0.051 C 
HETATM   67  H   LIG     1      -9.047  19.399  67.078  1.00  0.00     0.036 H 
HETATM   68  H   LIG     1      -8.811  21.083  67.560  1.00  0.00     0.036 H 
HETATM   69  H   LIG     1      -8.374  19.587  69.450  1.00  0.00     0.034 H 
HETATM   70  H   LIG     1      -6.930  20.463  69.006  1.00  0.00     0.034 H 
HETATM   71  H   LIG     1      -6.305  18.160  69.408  1.00  0.00     0.054 H 
BRANCH  61  72
HETATM   72  O   LIG     1      -6.563  21.534  66.390  1.00  0.00    -0.396 OA
HETATM   73  H   LIG     1      -6.127  21.766  65.558  1.00  0.00     0.210 HD
ENDBRANCH  61  72
ENDBRANCH  53  56
ENDBRANCH  49  52
ENDBRANCH  46  49
ENDBRANCH   3  46
TORSDOF 11
ENDMDL
MODEL 7
REMARK VINA RESULT:      -5.6      3.983      9.268
REMARK  11 active torsions:
REMARK  status: ('A' for Active; 'I' for Inactive)
REMARK    1  A    between atoms: N_1  and  S_2 
REMARK    2  A    between atoms: S_2  and  C_5 
REMARK    3  A    between atoms: C_8  and  C_9 
REMARK    4  A    between atoms: C_9  and  C_10 
REMARK    5  A    between atoms: C_14  and  N_15 
REMARK       I    between atoms: N_15  and  C_16 
REMARK       I    between atoms: C_16  and  N_18 
REMARK    6  A    between atoms: N_18  and  C_19 
REMARK    7  A    between atoms: C_21  and  C_22 
REMARK    8  A    between atoms: C_22  and  C_23 
REMARK    9  A    between atoms: C_23  and  N_24 
REMARK       I    between atoms: N_24  and  C_25 
REMARK   10  A    between atoms: C_25  and  C_27 
REMARK   11  A    between atoms: C_30  and  O_31 
ROOT
HETATM    1  C   LIG     1      -9.916   8.465  68.325  1.00  0.00     0.051 C 
HETATM    2  C   LIG     1     -10.776   7.663  67.677  1.00  0.00    -0.063 C 
HETATM    3  C   LIG     1     -10.313   6.532  66.778  1.00  0.00     0.045 C 
HETATM    4  C   LIG     1      -8.885   6.803  66.289  1.00  0.00     0.250 C 
HETATM    5  O   LIG     1      -8.540   6.458  65.159  1.00  0.00    -0.271 OA
HETATM    6  N   LIG     1      -7.998   7.337  67.188  1.00  0.00    -0.224 NA
HETATM    7  C   LIG     1      -8.479   8.108  68.108  1.00  0.00     0.031 C 
HETATM    8  H   LIG     1     -11.850   7.796  67.769  1.00  0.00     0.081 H 
HETATM    9  H   LIG     1     -10.953   6.533  65.886  1.00  0.00     0.061 H 
HETATM   10  H   LIG     1      -7.749   8.502  68.824  1.00  0.00     0.118 H 
ENDROOT
BRANCH   1  11
HETATM   11  N   LIG     1     -10.343   9.479  69.160  1.00  0.00    -0.308 N 
HETATM   12  C   LIG     1     -10.731  10.748  68.759  1.00  0.00     0.325 C 
HETATM   13  N   LIG     1     -11.130  11.556  69.814  1.00  0.00    -0.309 N 
HETATM   14  O   LIG     1     -10.731  11.097  67.586  1.00  0.00    -0.247 OA
HETATM   15  H   LIG     1     -11.443  11.091  70.655  1.00  0.00     0.170 HD
HETATM   16  H   LIG     1     -10.370   9.278  70.149  1.00  0.00     0.170 HD
BRANCH  13  17
HETATM   17  C   LIG     1     -11.524  12.913  69.645  1.00  0.00     0.036 A 
HETATM   18  C   LIG     1     -12.398  13.544  70.536  1.00  0.00    -0.057 A 
HETATM   19  C   LIG     1     -12.642  14.908  70.451  1.00  0.00    -0.080 A 
HETATM   20  H   LIG     1     -12.893  13.002  71.336  1.00  0.00     0.086 H 
HETATM   21  C   LIG     1     -12.051  15.658  69.441  1.00  0.00    -0.076 A 
HETATM   22  H   LIG     1     -13.273  15.388  71.195  1.00  0.00     0.083 H 
HETATM   23  C   LIG     1     -11.249  15.046  68.466  1.00  0.00    -0.052 A 
HETATM   24  H   LIG     1     -12.229  16.729  69.441  1.00  0.00     0.084 H 
HETATM   25  C   LIG     1     -10.993  13.662  68.581  1.00  0.00    -0.051 A 
HETATM   26  H   LIG     1     -10.334  13.185  67.860  1.00  0.00     0.087 H 
BRANCH  23  27
HETATM   27  C   LIG     1     -10.565  15.861  67.383  1.00  0.00    -0.017 C 
HETATM   28  H   LIG     1     -10.087  15.171  66.677  1.00  0.00     0.047 H 
HETATM   29  H   LIG     1     -11.321  16.413  66.808  1.00  0.00     0.047 H 
BRANCH  27  30
HETATM   30  C   LIG     1      -9.534  16.863  67.884  1.00  0.00    -0.054 A 
HETATM   31  C   LIG     1      -8.300  16.422  68.390  1.00  0.00    -0.075 A 
HETATM   32  C   LIG     1      -7.307  17.332  68.768  1.00  0.00    -0.060 A 
HETATM   33  H   LIG     1      -8.107  15.351  68.479  1.00  0.00     0.084 H 
HETATM   34  C   LIG     1      -7.546  18.701  68.628  1.00  0.00     0.074 A 
HETATM   35  H   LIG     1      -6.370  16.943  69.165  1.00  0.00     0.085 H 
HETATM   36  C   LIG     1      -8.779  19.163  68.149  1.00  0.00    -0.060 A 
HETATM   37  C   LIG     1      -9.767  18.243  67.779  1.00  0.00    -0.075 A 
HETATM   38  H   LIG     1      -8.976  20.229  68.059  1.00  0.00     0.085 H 
HETATM   39  H   LIG     1     -10.712  18.612  67.380  1.00  0.00     0.084 H 
BRANCH  34  40
HETATM   40  S   LIG     1      -6.304  19.906  69.060  1.00  0.00     0.239 S 
HETATM   41  O   LIG     1      -6.369  20.137  70.499  1.00  0.00    -0.206 OA
HETATM   42  O   LIG     1      -6.411  20.978  68.116  1.00  0.00    -0.206 OA
BRANCH  40  43
HETATM   43  N   LIG     1      -4.873  19.061  68.709  1.00  0.00    -0.225 NA
HETATM   44  H   LIG     1      -4.292  19.460  67.969  1.00  0.00     0.136 HD
HETATM   45  H   LIG     1      -4.322  18.767  69.525  1.00  0.00     0.136 HD
ENDBRANCH  40  43
ENDBRANCH  34  40
ENDBRANCH  27  30
ENDBRANCH  23  27
ENDBRANCH  13  17
ENDBRANCH   1  11
BRANCH   3  46
HETATM   46  C   LIG     1     -10.413   5.176  67.501  1.00  0.00    -0.036 C 
HETATM   47  H   LIG     1     -10.159   4.380  66.790  1.00  0.00     0.037 H 
HETATM   48  H   LIG     1     -11.453   4.992  67.806  1.00  0.00     0.037 H 
BRANCH  46  49
HETATM   49  C   LIG     1      -9.510   5.058  68.737  1.00  0.00    -0.004 C 
HETATM   50  H   LIG     1      -8.717   5.810  68.704  1.00  0.00     0.064 H 
HETATM   51  H   LIG     1      -9.047   4.067  68.785  1.00  0.00     0.064 H 
BRANCH  49  52
HETATM   52  N   LIG     1     -10.234   5.296  69.983  1.00  0.00    -0.361 N 
HETATM   53  C   LIG     1      -9.699   5.963  71.059  1.00  0.00     0.221 C 
HETATM   54  O   LIG     1      -8.544   6.387  71.062  1.00  0.00    -0.273 OA
HETATM   55  H   LIG     1     -11.223   5.060  69.988  1.00  0.00     0.162 HD
BRANCH  53  56
HETATM   56  C   LIG     1     -10.623   6.047  72.298  1.00  0.00     0.024 C 
HETATM   57  C   LIG     1     -10.384   7.307  73.147  1.00  0.00    -0.051 C 
HETATM   58  C   LIG     1     -10.941   8.592  72.522  1.00  0.00    -0.040 C 
HETATM   59  H   LIG     1      -9.314   7.440  73.347  1.00  0.00     0.034 H 
HETATM   60  H   LIG     1     -10.862   7.163  74.124  1.00  0.00     0.034 H 
HETATM   61  C   LIG     1     -12.369   8.478  71.988  1.00  0.00     0.035 C 
HETATM   62  H   LIG     1     -10.279   8.898  71.704  1.00  0.00     0.036 H 
HETATM   63  H   LIG     1     -10.900   9.387  73.280  1.00  0.00     0.036 H 
HETATM   64  C   LIG     1     -12.633   7.167  71.232  1.00  0.00    -0.040 C 
HETATM   65  H   LIG     1     -12.560   9.314  71.308  1.00  0.00     0.082 H 
HETATM   66  C   LIG     1     -12.121   5.941  71.985  1.00  0.00    -0.051 C 
HETATM   67  H   LIG     1     -12.149   7.211  70.249  1.00  0.00     0.036 H 
HETATM   68  H   LIG     1     -13.708   7.050  71.064  1.00  0.00     0.036 H 
HETATM   69  H   LIG     1     -12.353   5.039  71.412  1.00  0.00     0.034 H 
HETATM   70  H   LIG     1     -12.671   5.843  72.930  1.00  0.00     0.034 H 
HETATM   71  H   LIG     1     -10.342   5.183  72.915  1.00  0.00     0.054 H 
BRANCH  61  72
HETATM   72  O   LIG     1     -13.294   8.621  73.060  1.00  0.00    -0.396 OA
HETATM   73  H   LIG     1     -13.351   7.788  73.548  1.00  0.00     0.210 HD
ENDBRANCH  61  72
ENDBRANCH  53  56
ENDBRANCH  49  52
ENDBRANCH  46  49
ENDBRANCH   3  46
TORSDOF 11
ENDMDL
MODEL 8
REMARK VINA RESULT:      -5.1      4.776      9.997
REMARK  11 active torsions:
REMARK  status: ('A' for Active; 'I' for Inactive)
REMARK    1  A    between atoms: N_1  and  S_2 
REMARK    2  A    between atoms: S_2  and  C_5 
REMARK    3  A    between atoms: C_8  and  C_9 
REMARK    4  A    between atoms: C_9  and  C_10 
REMARK    5  A    between atoms: C_14  and  N_15 
REMARK       I    between atoms: N_15  and  C_16 
REMARK       I    between atoms: C_16  and  N_18 
REMARK    6  A    between atoms: N_18  and  C_19 
REMARK    7  A    between atoms: C_21  and  C_22 
REMARK    8  A    between atoms: C_22  and  C_23 
REMARK    9  A    between atoms: C_23  and  N_24 
REMARK       I    between atoms: N_24  and  C_25 
REMARK   10  A    between atoms: C_25  and  C_27 
REMARK   11  A    between atoms: C_30  and  O_31 
ROOT
HETATM    1  C   LIG     1      -9.368   8.888  67.929  1.00  0.00     0.051 C 
HETATM    2  C   LIG     1     -10.439   8.246  67.438  1.00  0.00    -0.063 C 
HETATM    3  C   LIG     1     -10.338   6.884  66.777  1.00  0.00     0.045 C 
HETATM    4  C   LIG     1      -8.911   6.657  66.260  1.00  0.00     0.250 C 
HETATM    5  O   LIG     1      -8.721   6.025  65.222  1.00  0.00    -0.271 OA
HETATM    6  N   LIG     1      -7.876   7.087  67.050  1.00  0.00    -0.224 NA
HETATM    7  C   LIG     1      -8.091   8.118  67.800  1.00  0.00     0.031 C 
HETATM    8  H   LIG     1     -11.432   8.682  67.491  1.00  0.00     0.081 H 
HETATM    9  H   LIG     1     -10.991   6.893  65.895  1.00  0.00     0.061 H 
HETATM   10  H   LIG     1      -7.252   8.424  68.435  1.00  0.00     0.118 H 
ENDROOT
BRANCH   1  11
HETATM   11  N   LIG     1      -9.469  10.118  68.550  1.00  0.00    -0.308 N 
HETATM   12  C   LIG     1      -9.840  11.306  67.937  1.00  0.00     0.325 C 
HETATM   13  N   LIG     1      -9.873  12.383  68.811  1.00  0.00    -0.309 N 
HETATM   14  O   LIG     1     -10.124  11.373  66.749  1.00  0.00    -0.247 OA
HETATM   15  H   LIG     1      -9.988  12.174  69.793  1.00  0.00     0.170 HD
HETATM   16  H   LIG     1      -9.247  10.155  69.534  1.00  0.00     0.170 HD
BRANCH  13  17
HETATM   17  C   LIG     1     -10.182  13.709  68.395  1.00  0.00     0.036 A 
HETATM   18  C   LIG     1     -11.432  14.286  68.636  1.00  0.00    -0.057 A 
HETATM   19  C   LIG     1     -11.662  15.629  68.373  1.00  0.00    -0.080 A 
HETATM   20  H   LIG     1     -12.255  13.718  69.060  1.00  0.00     0.086 H 
HETATM   21  C   LIG     1     -10.655  16.410  67.817  1.00  0.00    -0.076 A 
HETATM   22  H   LIG     1     -12.621  16.071  68.631  1.00  0.00     0.083 H 
HETATM   23  C   LIG     1      -9.419  15.847  67.465  1.00  0.00    -0.052 A 
HETATM   24  H   LIG     1     -10.859  17.467  67.673  1.00  0.00     0.084 H 
HETATM   25  C   LIG     1      -9.196  14.483  67.761  1.00  0.00    -0.051 A 
HETATM   26  H   LIG     1      -8.225  14.047  67.538  1.00  0.00     0.087 H 
BRANCH  23  27
HETATM   27  C   LIG     1      -8.299  16.698  66.895  1.00  0.00    -0.017 C 
HETATM   28  H   LIG     1      -7.603  16.042  66.356  1.00  0.00     0.047 H 
HETATM   29  H   LIG     1      -8.708  17.390  66.148  1.00  0.00     0.047 H 
BRANCH  27  30
HETATM   30  C   LIG     1      -7.526  17.517  67.921  1.00  0.00    -0.054 A 
HETATM   31  C   LIG     1      -6.667  16.886  68.835  1.00  0.00    -0.075 A 
HETATM   32  C   LIG     1      -5.882  17.632  69.721  1.00  0.00    -0.060 A 
HETATM   33  H   LIG     1      -6.602  15.796  68.848  1.00  0.00     0.084 H 
HETATM   34  C   LIG     1      -5.947  19.025  69.685  1.00  0.00     0.074 A 
HETATM   35  H   LIG     1      -5.239  17.097  70.420  1.00  0.00     0.085 H 
HETATM   36  C   LIG     1      -6.816  19.675  68.797  1.00  0.00    -0.060 A 
HETATM   37  C   LIG     1      -7.601  18.919  67.920  1.00  0.00    -0.075 A 
HETATM   38  H   LIG     1      -6.885  20.760  68.783  1.00  0.00     0.085 H 
HETATM   39  H   LIG     1      -8.252  19.434  67.213  1.00  0.00     0.084 H 
BRANCH  34  40
HETATM   40  S   LIG     1      -4.943  20.028  70.767  1.00  0.00     0.239 S 
HETATM   41  O   LIG     1      -3.576  19.521  70.725  1.00  0.00    -0.206 OA
HETATM   42  O   LIG     1      -5.662  20.168  71.998  1.00  0.00    -0.206 OA
BRANCH  40  43
HETATM   43  N   LIG     1      -4.991  21.532  69.977  1.00  0.00    -0.225 NA
HETATM   44  H   LIG     1      -4.084  21.927  69.721  1.00  0.00     0.136 HD
HETATM   45  H   LIG     1      -5.681  21.610  69.220  1.00  0.00     0.136 HD
ENDBRANCH  40  43
ENDBRANCH  34  40
ENDBRANCH  27  30
ENDBRANCH  23  27
ENDBRANCH  13  17
ENDBRANCH   1  11
BRANCH   3  46
HETATM   46  C   LIG     1     -10.770   5.768  67.746  1.00  0.00    -0.036 C 
HETATM   47  H   LIG     1     -10.809   4.820  67.193  1.00  0.00     0.037 H 
HETATM   48  H   LIG     1     -11.794   5.956  68.100  1.00  0.00     0.037 H 
BRANCH  46  49
HETATM   49  C   LIG     1      -9.850   5.605  68.964  1.00  0.00    -0.004 C 
HETATM   50  H   LIG     1      -9.086   6.388  68.973  1.00  0.00     0.064 H 
HETATM   51  H   LIG     1      -9.350   4.631  68.946  1.00  0.00     0.064 H 
BRANCH  49  52
HETATM   52  N   LIG     1     -10.571   5.736  70.229  1.00  0.00    -0.361 N 
HETATM   53  C   LIG     1     -10.245   6.654  71.198  1.00  0.00     0.221 C 
HETATM   54  O   LIG     1      -9.292   7.423  71.083  1.00  0.00    -0.273 OA
HETATM   55  H   LIG     1     -11.428   5.197  70.323  1.00  0.00     0.162 HD
BRANCH  53  56
HETATM   56  C   LIG     1     -11.105   6.574  72.483  1.00  0.00     0.024 C 
HETATM   57  C   LIG     1     -11.616   5.155  72.782  1.00  0.00    -0.051 C 
HETATM   58  C   LIG     1     -10.540   4.208  73.325  1.00  0.00    -0.040 C 
HETATM   59  H   LIG     1     -12.067   4.711  71.885  1.00  0.00     0.034 H 
HETATM   60  H   LIG     1     -12.422   5.225  73.524  1.00  0.00     0.034 H 
HETATM   61  C   LIG     1      -9.678   4.792  74.443  1.00  0.00     0.035 C 
HETATM   62  H   LIG     1      -9.890   3.904  72.496  1.00  0.00     0.036 H 
HETATM   63  H   LIG     1     -11.038   3.297  73.689  1.00  0.00     0.036 H 
HETATM   64  C   LIG     1      -9.258   6.248  74.190  1.00  0.00    -0.040 C 
HETATM   65  H   LIG     1      -8.773   4.185  74.547  1.00  0.00     0.082 H 
HETATM   66  C   LIG     1     -10.424   7.126  73.741  1.00  0.00    -0.051 C 
HETATM   67  H   LIG     1      -8.476   6.271  73.421  1.00  0.00     0.036 H 
HETATM   68  H   LIG     1      -8.832   6.672  75.105  1.00  0.00     0.036 H 
HETATM   69  H   LIG     1     -10.073   8.151  73.596  1.00  0.00     0.034 H 
HETATM   70  H   LIG     1     -11.166   7.178  74.548  1.00  0.00     0.034 H 
HETATM   71  H   LIG     1     -11.984   7.197  72.271  1.00  0.00     0.054 H 
BRANCH  61  72
HETATM   72  O   LIG     1     -10.367   4.689  75.684  1.00  0.00    -0.396 OA
HETATM   73  H   LIG     1     -10.948   5.455  75.793  1.00  0.00     0.210 HD
ENDBRANCH  61  72
ENDBRANCH  53  56
ENDBRANCH  49  52
ENDBRANCH  46  49
ENDBRANCH   3  46
TORSDOF 11
ENDMDL
MODEL 9
REMARK VINA RESULT:      -4.5      5.682      9.278
REMARK  11 active torsions:
REMARK  status: ('A' for Active; 'I' for Inactive)
REMARK    1  A    between atoms: N_1  and  S_2 
REMARK    2  A    between atoms: S_2  and  C_5 
REMARK    3  A    between atoms: C_8  and  C_9 
REMARK    4  A    between atoms: C_9  and  C_10 
REMARK    5  A    between atoms: C_14  and  N_15 
REMARK       I    between atoms: N_15  and  C_16 
REMARK       I    between atoms: C_16  and  N_18 
REMARK    6  A    between atoms: N_18  and  C_19 
REMARK    7  A    between atoms: C_21  and  C_22 
REMARK    8  A    between atoms: C_22  and  C_23 
REMARK    9  A    between atoms: C_23  and  N_24 
REMARK       I    between atoms: N_24  and  C_25 
REMARK   10  A    between atoms: C_25  and  C_27 
REMARK   11  A    between atoms: C_30  and  O_31 
ROOT
HETATM    1  C   LIG     1      -6.898  10.010  64.893  1.00  0.00     0.051 C 
HETATM    2  C   LIG     1      -7.960   9.222  65.120  1.00  0.00    -0.063 C 
HETATM    3  C   LIG     1      -8.337   8.744  66.511  1.00  0.00     0.045 C 
HETATM    4  C   LIG     1      -7.108   8.783  67.428  1.00  0.00     0.250 C 
HETATM    5  O   LIG     1      -6.959   7.930  68.302  1.00  0.00    -0.271 OA
HETATM    6  N   LIG     1      -6.259   9.853  67.304  1.00  0.00    -0.224 NA
HETATM    7  C   LIG     1      -6.159  10.398  66.136  1.00  0.00     0.031 C 
HETATM    8  H   LIG     1      -8.599   8.888  64.308  1.00  0.00     0.081 H 
HETATM    9  H   LIG     1      -8.633   7.690  66.431  1.00  0.00     0.061 H 
HETATM   10  H   LIG     1      -5.490  11.264  66.073  1.00  0.00     0.118 H 
ENDROOT
BRANCH   1  11
HETATM   11  N   LIG     1      -6.573  10.460  63.629  1.00  0.00    -0.308 N 
HETATM   12  C   LIG     1      -6.189   9.663  62.560  1.00  0.00     0.325 C 
HETATM   13  N   LIG     1      -5.939  10.387  61.403  1.00  0.00    -0.309 N 
HETATM   14  O   LIG     1      -6.103   8.445  62.644  1.00  0.00    -0.247 OA
HETATM   15  H   LIG     1      -6.379  11.293  61.324  1.00  0.00     0.170 HD
HETATM   16  H   LIG     1      -6.613  11.456  63.472  1.00  0.00     0.170 HD
BRANCH  13  17
HETATM   17  C   LIG     1      -5.488   9.784  60.195  1.00  0.00     0.036 A 
HETATM   18  C   LIG     1      -4.129   9.615  59.917  1.00  0.00    -0.057 A 
HETATM   19  C   LIG     1      -3.711   8.881  58.816  1.00  0.00    -0.080 A 
HETATM   20  H   LIG     1      -3.356  10.024  60.560  1.00  0.00     0.086 H 
HETATM   21  C   LIG     1      -4.649   8.342  57.943  1.00  0.00    -0.076 A 
HETATM   22  H   LIG     1      -2.650   8.707  58.657  1.00  0.00     0.083 H 
HETATM   23  C   LIG     1      -6.020   8.574  58.128  1.00  0.00    -0.052 A 
HETATM   24  H   LIG     1      -4.282   7.733  57.122  1.00  0.00     0.084 H 
HETATM   25  C   LIG     1      -6.428   9.304  59.267  1.00  0.00    -0.051 A 
HETATM   26  H   LIG     1      -7.491   9.449  59.448  1.00  0.00     0.087 H 
BRANCH  23  27
HETATM   27  C   LIG     1      -7.056   7.956  57.206  1.00  0.00    -0.017 C 
HETATM   28  H   LIG     1      -7.358   8.710  56.467  1.00  0.00     0.047 H 
HETATM   29  H   LIG     1      -6.598   7.137  56.638  1.00  0.00     0.047 H 
BRANCH  27  30
HETATM   30  C   LIG     1      -8.295   7.410  57.902  1.00  0.00    -0.054 A 
HETATM   31  C   LIG     1      -9.555   7.985  57.670  1.00  0.00    -0.075 A 
HETATM   32  C   LIG     1     -10.713   7.437  58.230  1.00  0.00    -0.060 A 
HETATM   33  H   LIG     1      -9.633   8.868  57.032  1.00  0.00     0.084 H 
HETATM   34  C   LIG     1     -10.614   6.293  59.023  1.00  0.00     0.074 A 
HETATM   35  H   LIG     1     -11.667   7.926  58.029  1.00  0.00     0.085 H 
HETATM   36  C   LIG     1      -9.364   5.717  59.288  1.00  0.00    -0.060 A 
HETATM   37  C   LIG     1      -8.211   6.277  58.727  1.00  0.00    -0.075 A 
HETATM   38  H   LIG     1      -9.281   4.838  59.924  1.00  0.00     0.085 H 
HETATM   39  H   LIG     1      -7.247   5.805  58.915  1.00  0.00     0.084 H 
BRANCH  34  40
HETATM   40  S   LIG     1     -12.062   5.530  59.734  1.00  0.00     0.239 S 
HETATM   41  O   LIG     1     -11.688   4.941  61.015  1.00  0.00    -0.206 OA
HETATM   42  O   LIG     1     -12.683   4.760  58.698  1.00  0.00    -0.206 OA
BRANCH  40  43
HETATM   43  N   LIG     1     -13.050   6.882  60.024  1.00  0.00    -0.225 NA
HETATM   44  H   LIG     1     -13.660   7.159  59.252  1.00  0.00     0.136 HD
HETATM   45  H   LIG     1     -13.535   6.887  60.929  1.00  0.00     0.136 HD
ENDBRANCH  40  43
ENDBRANCH  34  40
ENDBRANCH  27  30
ENDBRANCH  23  27
ENDBRANCH  13  17
ENDBRANCH   1  11
BRANCH   3  46
HETATM   46  C   LIG     1      -9.496   9.579  67.085  1.00  0.00    -0.036 C 
HETATM   47  H   LIG     1      -9.820  10.299  66.322  1.00  0.00     0.037 H 
HETATM   48  H   LIG     1      -9.140  10.177  67.936  1.00  0.00     0.037 H 
BRANCH  46  49
HETATM   49  C   LIG     1     -10.703   8.746  67.539  1.00  0.00    -0.004 C 
HETATM   50  H   LIG     1     -10.645   7.734  67.128  1.00  0.00     0.064 H 
HETATM   51  H   LIG     1     -11.639   9.204  67.203  1.00  0.00     0.064 H 
BRANCH  49  52
HETATM   52  N   LIG     1     -10.756   8.585  68.990  1.00  0.00    -0.361 N 
HETATM   53  C   LIG     1     -11.012   7.388  69.614  1.00  0.00     0.221 C 
HETATM   54  O   LIG     1     -11.247   6.356  68.986  1.00  0.00    -0.273 OA
HETATM   55  H   LIG     1     -10.464   9.383  69.548  1.00  0.00     0.162 HD
BRANCH  53  56
HETATM   56  C   LIG     1     -11.082   7.462  71.159  1.00  0.00     0.024 C 
HETATM   57  C   LIG     1     -11.118   8.903  71.694  1.00  0.00    -0.051 C 
HETATM   58  C   LIG     1     -12.469   9.603  71.502  1.00  0.00    -0.040 C 
HETATM   59  H   LIG     1     -10.330   9.508  71.228  1.00  0.00     0.034 H 
HETATM   60  H   LIG     1     -10.890   8.881  72.768  1.00  0.00     0.034 H 
HETATM   61  C   LIG     1     -13.685   8.771  71.907  1.00  0.00     0.035 C 
HETATM   62  H   LIG     1     -12.568   9.888  70.448  1.00  0.00     0.036 H 
HETATM   63  H   LIG     1     -12.457  10.536  72.084  1.00  0.00     0.036 H 
HETATM   64  C   LIG     1     -13.594   7.303  71.462  1.00  0.00    -0.040 C 
HETATM   65  H   LIG     1     -14.581   9.213  71.460  1.00  0.00     0.082 H 
HETATM   66  C   LIG     1     -12.240   6.675  71.783  1.00  0.00    -0.051 C 
HETATM   67  H   LIG     1     -13.770   7.241  70.381  1.00  0.00     0.036 H 
HETATM   68  H   LIG     1     -14.377   6.720  71.957  1.00  0.00     0.036 H 
HETATM   69  H   LIG     1     -12.239   5.630  71.465  1.00  0.00     0.034 H 
HETATM   70  H   LIG     1     -12.103   6.654  72.873  1.00  0.00     0.034 H 
HETATM   71  H   LIG     1     -10.140   7.013  71.503  1.00  0.00     0.054 H 
BRANCH  61  72
HETATM   72  O   LIG     1     -13.870   8.846  73.316  1.00  0.00    -0.396 OA
HETATM   73  H   LIG     1     -13.254   8.240  73.753  1.00  0.00     0.210 HD
ENDBRANCH  61  72
ENDBRANCH  53  56
ENDBRANCH  49  52
ENDBRANCH  46  49
ENDBRANCH   3  46
TORSDOF 11
ENDMDL
