MODEL 1
REMARK VINA RESULT:      -9.0      0.000      0.000
REMARK  11 active torsions:
REMARK  status: ('A' for Active; 'I' for Inactive)
REMARK    1  A    between atoms: N_1  and  S_2 
REMARK    2  A    between atoms: S_2  and  C_5 
REMARK    3  A    between atoms: C_8  and  C_9 
REMARK    4  A    between atoms: C_9  and  C_10 
REMARK    5  A    between atoms: C_14  and  N_15 
REMARK       I    between atoms: N_15  and  C_16 
REMARK       I    between atoms: C_16  and  N_18 
REMARK    6  A    between atoms: N_18  and  C_19 
REMARK    7  A    between atoms: C_20  and  C_21 
REMARK    8  A    between atoms: C_21  and  C_22 
REMARK    9  A    between atoms: C_22  and  N_23 
REMARK       I    between atoms: N_23  and  C_24 
REMARK   10  A    between atoms: C_24  and  C_26 
REMARK   11  A    between atoms: C_29  and  O_30 
ROOT
HETATM    1  C   LIG     1     -10.109  17.618  67.818  1.00  0.00     0.057 C 
HETATM    2  C   LIG     1      -9.341  17.332  66.743  1.00  0.00    -0.041 C 
HETATM    3  C   LIG     1      -8.296  18.334  66.280  1.00  0.00     0.034 C 
HETATM    4  C   LIG     1      -7.845  19.233  67.415  1.00  0.00     0.246 C 
HETATM    5  O   LIG     1      -6.658  19.513  67.551  1.00  0.00    -0.271 OA
HETATM    6  N   LIG     1      -8.849  19.748  68.193  1.00  0.00    -0.224 NA
HETATM    7  C   LIG     1      -9.894  18.999  68.364  1.00  0.00     0.032 C 
HETATM    8  H   LIG     1      -8.671  18.934  65.448  1.00  0.00     0.054 H 
HETATM    9  H   LIG     1      -7.378  17.840  65.952  1.00  0.00     0.054 H 
HETATM   10  H   LIG     1     -10.738  19.446  68.908  1.00  0.00     0.118 H 
ENDROOT
BRANCH   1  11
HETATM   11  N   LIG     1     -11.063  16.751  68.312  1.00  0.00    -0.307 N 
HETATM   12  C   LIG     1     -10.928  15.765  69.285  1.00  0.00     0.325 C 
HETATM   13  N   LIG     1     -12.141  15.101  69.451  1.00  0.00    -0.309 N 
HETATM   14  O   LIG     1      -9.880  15.523  69.868  1.00  0.00    -0.247 OA
HETATM   15  H   LIG     1     -12.955  15.540  69.052  1.00  0.00     0.170 HD
HETATM   16  H   LIG     1     -11.951  16.734  67.840  1.00  0.00     0.170 HD
BRANCH  13  17
HETATM   17  C   LIG     1     -12.443  14.002  70.284  1.00  0.00     0.036 A 
HETATM   18  C   LIG     1     -13.170  14.095  71.467  1.00  0.00    -0.057 A 
HETATM   19  C   LIG     1     -13.511  12.937  72.171  1.00  0.00    -0.080 A 
HETATM   20  H   LIG     1     -13.520  15.050  71.846  1.00  0.00     0.086 H 
HETATM   21  C   LIG     1     -13.100  11.683  71.716  1.00  0.00    -0.076 A 
HETATM   22  H   LIG     1     -14.123  13.016  73.067  1.00  0.00     0.083 H 
HETATM   23  C   LIG     1     -12.338  11.566  70.547  1.00  0.00    -0.052 A 
HETATM   24  H   LIG     1     -13.393  10.797  72.275  1.00  0.00     0.084 H 
HETATM   25  C   LIG     1     -12.014  12.735  69.843  1.00  0.00    -0.051 A 
HETATM   26  H   LIG     1     -11.422  12.646  68.935  1.00  0.00     0.087 H 
BRANCH  23  27
HETATM   27  C   LIG     1     -11.916  10.206  70.026  1.00  0.00    -0.017 C 
HETATM   28  H   LIG     1     -12.808   9.684  69.653  1.00  0.00     0.047 H 
HETATM   29  H   LIG     1     -11.270  10.324  69.146  1.00  0.00     0.047 H 
BRANCH  27  30
HETATM   30  C   LIG     1     -11.200   9.341  71.045  1.00  0.00    -0.054 A 
HETATM   31  C   LIG     1      -9.796   9.292  71.076  1.00  0.00    -0.075 A 
HETATM   32  C   LIG     1      -9.127   8.496  72.007  1.00  0.00    -0.060 A 
HETATM   33  H   LIG     1      -9.208   9.881  70.375  1.00  0.00     0.084 H 
HETATM   34  C   LIG     1      -9.863   7.728  72.910  1.00  0.00     0.074 A 
HETATM   35  H   LIG     1      -8.039   8.488  72.022  1.00  0.00     0.085 H 
HETATM   36  C   LIG     1     -11.260   7.754  72.891  1.00  0.00    -0.060 A 
HETATM   37  C   LIG     1     -11.925   8.557  71.956  1.00  0.00    -0.075 A 
HETATM   38  H   LIG     1     -11.833   7.158  73.597  1.00  0.00     0.085 H 
HETATM   39  H   LIG     1     -13.013   8.561  71.945  1.00  0.00     0.084 H 
BRANCH  34  40
HETATM   40  S   LIG     1      -9.030   6.730  74.111  1.00  0.00     0.239 S 
HETATM   41  O   LIG     1      -7.983   6.002  73.461  1.00  0.00    -0.206 OA
HETATM   42  O   LIG     1     -10.016   6.092  74.971  1.00  0.00    -0.206 OA
BRANCH  40  43
HETATM   43  N   LIG     1      -8.285   7.877  75.086  1.00  0.00    -0.225 NA
HETATM   44  H   LIG     1      -8.973   8.270  75.729  1.00  0.00     0.136 HD
HETATM   45  H   LIG     1      -7.819   8.574  74.505  1.00  0.00     0.136 HD
ENDBRANCH  40  43
ENDBRANCH  34  40
ENDBRANCH  27  30
ENDBRANCH  23  27
ENDBRANCH  13  17
ENDBRANCH   1  11
BRANCH   2  46
HETATM   46  C   LIG     1      -9.459  16.061  65.918  1.00  0.00    -0.027 C 
HETATM   47  H   LIG     1      -9.498  15.208  66.607  1.00  0.00     0.042 H 
HETATM   48  H   LIG     1      -8.569  15.930  65.291  1.00  0.00     0.042 H 
BRANCH  46  49
HETATM   49  C   LIG     1     -10.674  16.002  64.987  1.00  0.00    -0.001 C 
HETATM   50  H   LIG     1     -10.471  16.518  64.040  1.00  0.00     0.064 H 
HETATM   51  H   LIG     1     -11.519  16.526  65.442  1.00  0.00     0.064 H 
BRANCH  49  52
HETATM   52  N   LIG     1     -11.055  14.628  64.701  1.00  0.00    -0.360 N 
HETATM   53  C   LIG     1     -11.846  13.917  65.568  1.00  0.00     0.221 C 
HETATM   54  O   LIG     1     -12.185  14.373  66.655  1.00  0.00    -0.273 OA
HETATM   55  H   LIG     1     -10.923  14.264  63.765  1.00  0.00     0.162 HD
BRANCH  53  56
HETATM   56  C   LIG     1     -12.178  12.490  65.113  1.00  0.00     0.024 C 
HETATM   57  C   LIG     1     -11.794  12.297  63.637  1.00  0.00    -0.051 C 
HETATM   58  C   LIG     1     -10.282  12.164  63.426  1.00  0.00    -0.040 C 
HETATM   59  H   LIG     1     -12.166  13.136  63.034  1.00  0.00     0.034 H 
HETATM   60  H   LIG     1     -12.295  11.402  63.250  1.00  0.00     0.034 H 
HETATM   61  C   LIG     1      -9.645  11.108  64.328  1.00  0.00     0.035 C 
HETATM   62  H   LIG     1      -9.798  13.131  63.611  1.00  0.00     0.036 H 
HETATM   63  H   LIG     1     -10.100  11.913  62.374  1.00  0.00     0.036 H 
HETATM   64  C   LIG     1     -10.039  11.284  65.796  1.00  0.00    -0.040 C 
HETATM   65  H   LIG     1      -8.554  11.177  64.246  1.00  0.00     0.082 H 
HETATM   66  C   LIG     1     -11.552  11.397  65.991  1.00  0.00    -0.051 C 
HETATM   67  H   LIG     1      -9.559  12.184  66.201  1.00  0.00     0.036 H 
HETATM   68  H   LIG     1      -9.676  10.431  66.381  1.00  0.00     0.036 H 
HETATM   69  H   LIG     1     -11.759  11.560  67.053  1.00  0.00     0.034 H 
HETATM   70  H   LIG     1     -12.018  10.433  65.744  1.00  0.00     0.034 H 
HETATM   71  H   LIG     1     -13.271  12.405  65.190  1.00  0.00     0.054 H 
BRANCH  61  72
HETATM   72  O   LIG     1     -10.002   9.802  63.874  1.00  0.00    -0.396 OA
HETATM   73  H   LIG     1      -9.828   9.174  64.594  1.00  0.00     0.210 HD
ENDBRANCH  61  72
ENDBRANCH  53  56
ENDBRANCH  49  52
ENDBRANCH  46  49
ENDBRANCH   2  46
TORSDOF 11
ENDMDL
MODEL 2
REMARK VINA RESULT:      -8.7      2.772      3.353
REMARK  11 active torsions:
REMARK  status: ('A' for Active; 'I' for Inactive)
REMARK    1  A    between atoms: N_1  and  S_2 
REMARK    2  A    between atoms: S_2  and  C_5 
REMARK    3  A    between atoms: C_8  and  C_9 
REMARK    4  A    between atoms: C_9  and  C_10 
REMARK    5  A    between atoms: C_14  and  N_15 
REMARK       I    between atoms: N_15  and  C_16 
REMARK       I    between atoms: C_16  and  N_18 
REMARK    6  A    between atoms: N_18  and  C_19 
REMARK    7  A    between atoms: C_20  and  C_21 
REMARK    8  A    between atoms: C_21  and  C_22 
REMARK    9  A    between atoms: C_22  and  N_23 
REMARK       I    between atoms: N_23  and  C_24 
REMARK   10  A    between atoms: C_24  and  C_26 
REMARK   11  A    between atoms: C_29  and  O_30 
ROOT
HETATM    1  C   LIG     1      -9.940  17.630  67.357  1.00  0.00     0.057 C 
HETATM    2  C   LIG     1      -8.602  17.459  67.433  1.00  0.00    -0.041 C 
HETATM    3  C   LIG     1      -7.676  18.543  66.905  1.00  0.00     0.034 C 
HETATM    4  C   LIG     1      -8.348  19.902  66.914  1.00  0.00     0.246 C 
HETATM    5  O   LIG     1      -7.729  20.897  67.279  1.00  0.00    -0.271 OA
HETATM    6  N   LIG     1      -9.627  19.931  66.422  1.00  0.00    -0.224 NA
HETATM    7  C   LIG     1     -10.349  18.872  66.623  1.00  0.00     0.032 C 
HETATM    8  H   LIG     1      -7.325  18.301  65.900  1.00  0.00     0.054 H 
HETATM    9  H   LIG     1      -6.800  18.675  67.544  1.00  0.00     0.054 H 
HETATM   10  H   LIG     1     -11.341  18.855  66.150  1.00  0.00     0.118 H 
ENDROOT
BRANCH   1  11
HETATM   11  N   LIG     1     -10.844  16.702  67.836  1.00  0.00    -0.307 N 
HETATM   12  C   LIG     1     -11.183  16.410  69.154  1.00  0.00     0.325 C 
HETATM   13  N   LIG     1     -12.117  15.378  69.180  1.00  0.00    -0.309 N 
HETATM   14  O   LIG     1     -10.694  16.974  70.123  1.00  0.00    -0.247 OA
HETATM   15  H   LIG     1     -12.570  15.155  68.308  1.00  0.00     0.170 HD
HETATM   16  H   LIG     1     -11.236  16.062  67.166  1.00  0.00     0.170 HD
BRANCH  13  17
HETATM   17  C   LIG     1     -12.689  14.729  70.295  1.00  0.00     0.036 A 
HETATM   18  C   LIG     1     -13.498  15.360  71.236  1.00  0.00    -0.057 A 
HETATM   19  C   LIG     1     -14.107  14.612  72.247  1.00  0.00    -0.080 A 
HETATM   20  H   LIG     1     -13.707  16.424  71.185  1.00  0.00     0.086 H 
HETATM   21  C   LIG     1     -13.886  13.238  72.346  1.00  0.00    -0.076 A 
HETATM   22  H   LIG     1     -14.778  15.106  72.947  1.00  0.00     0.083 H 
HETATM   23  C   LIG     1     -13.048  12.586  71.432  1.00  0.00    -0.052 A 
HETATM   24  H   LIG     1     -14.385  12.678  73.134  1.00  0.00     0.084 H 
HETATM   25  C   LIG     1     -12.454  13.346  70.413  1.00  0.00    -0.051 A 
HETATM   26  H   LIG     1     -11.803  12.841  69.703  1.00  0.00     0.087 H 
BRANCH  23  27
HETATM   27  C   LIG     1     -12.828  11.088  71.509  1.00  0.00    -0.017 C 
HETATM   28  H   LIG     1     -12.458  10.841  72.514  1.00  0.00     0.047 H 
HETATM   29  H   LIG     1     -13.787  10.561  71.424  1.00  0.00     0.047 H 
BRANCH  27  30
HETATM   30  C   LIG     1     -11.878  10.541  70.461  1.00  0.00    -0.054 A 
HETATM   31  C   LIG     1     -10.772   9.761  70.839  1.00  0.00    -0.075 A 
HETATM   32  C   LIG     1      -9.890   9.256  69.883  1.00  0.00    -0.060 A 
HETATM   33  H   LIG     1     -10.591   9.533  71.887  1.00  0.00     0.084 H 
HETATM   34  C   LIG     1     -10.101   9.543  68.534  1.00  0.00     0.074 A 
HETATM   35  H   LIG     1      -9.051   8.640  70.200  1.00  0.00     0.085 H 
HETATM   36  C   LIG     1     -11.189  10.325  68.135  1.00  0.00    -0.060 A 
HETATM   37  C   LIG     1     -12.071  10.826  69.100  1.00  0.00    -0.075 A 
HETATM   38  H   LIG     1     -11.354  10.545  67.084  1.00  0.00     0.085 H 
HETATM   39  H   LIG     1     -12.909  11.441  68.777  1.00  0.00     0.084 H 
BRANCH  34  40
HETATM   40  S   LIG     1      -9.004   8.893  67.307  1.00  0.00     0.239 S 
HETATM   41  O   LIG     1      -9.749   8.629  66.113  1.00  0.00    -0.206 OA
HETATM   42  O   LIG     1      -8.127   7.907  67.922  1.00  0.00    -0.206 OA
BRANCH  40  43
HETATM   43  N   LIG     1      -8.010  10.205  66.974  1.00  0.00    -0.225 NA
HETATM   44  H   LIG     1      -8.508  11.068  67.188  1.00  0.00     0.136 HD
HETATM   45  H   LIG     1      -7.677  10.150  66.011  1.00  0.00     0.136 HD
ENDBRANCH  40  43
ENDBRANCH  34  40
ENDBRANCH  27  30
ENDBRANCH  23  27
ENDBRANCH  13  17
ENDBRANCH   1  11
BRANCH   2  46
HETATM   46  C   LIG     1      -7.925  16.221  67.999  1.00  0.00    -0.027 C 
HETATM   47  H   LIG     1      -8.578  15.797  68.771  1.00  0.00     0.042 H 
HETATM   48  H   LIG     1      -6.981  16.492  68.487  1.00  0.00     0.042 H 
BRANCH  46  49
HETATM   49  C   LIG     1      -7.600  15.132  66.972  1.00  0.00    -0.001 C 
HETATM   50  H   LIG     1      -6.652  14.634  67.211  1.00  0.00     0.064 H 
HETATM   51  H   LIG     1      -7.467  15.579  65.983  1.00  0.00     0.064 H 
BRANCH  49  52
HETATM   52  N   LIG     1      -8.654  14.131  66.912  1.00  0.00    -0.360 N 
HETATM   53  C   LIG     1      -9.652  14.209  65.973  1.00  0.00     0.221 C 
HETATM   54  O   LIG     1      -9.750  15.166  65.212  1.00  0.00    -0.273 OA
HETATM   55  H   LIG     1      -8.536  13.260  67.414  1.00  0.00     0.162 HD
BRANCH  53  56
HETATM   56  C   LIG     1     -10.673  13.066  66.025  1.00  0.00     0.024 C 
HETATM   57  C   LIG     1     -12.102  13.620  65.903  1.00  0.00    -0.051 C 
HETATM   58  C   LIG     1     -12.453  14.057  64.476  1.00  0.00    -0.040 C 
HETATM   59  H   LIG     1     -12.239  14.472  66.581  1.00  0.00     0.034 H 
HETATM   60  H   LIG     1     -12.814  12.854  66.233  1.00  0.00     0.034 H 
HETATM   61  C   LIG     1     -12.164  12.978  63.434  1.00  0.00     0.035 C 
HETATM   62  H   LIG     1     -11.889  14.962  64.220  1.00  0.00     0.036 H 
HETATM   63  H   LIG     1     -13.516  14.327  64.448  1.00  0.00     0.036 H 
HETATM   64  C   LIG     1     -10.750  12.409  63.564  1.00  0.00    -0.040 C 
HETATM   65  H   LIG     1     -12.281  13.406  62.432  1.00  0.00     0.082 H 
HETATM   66  C   LIG     1     -10.423  11.961  64.989  1.00  0.00    -0.051 C 
HETATM   67  H   LIG     1     -10.019  13.165  63.251  1.00  0.00     0.036 H 
HETATM   68  H   LIG     1     -10.635  11.549  62.894  1.00  0.00     0.036 H 
HETATM   69  H   LIG     1      -9.388  11.604  65.017  1.00  0.00     0.034 H 
HETATM   70  H   LIG     1     -11.042  11.090  65.242  1.00  0.00     0.034 H 
HETATM   71  H   LIG     1     -10.569  12.625  67.026  1.00  0.00     0.054 H 
BRANCH  61  72
HETATM   72  O   LIG     1     -13.130  11.931  63.540  1.00  0.00    -0.396 OA
HETATM   73  H   LIG     1     -12.667  11.120  63.810  1.00  0.00     0.210 HD
ENDBRANCH  61  72
ENDBRANCH  53  56
ENDBRANCH  49  52
ENDBRANCH  46  49
ENDBRANCH   2  46
TORSDOF 11
ENDMDL
MODEL 3
REMARK VINA RESULT:      -7.3      4.551     10.813
REMARK  11 active torsions:
REMARK  status: ('A' for Active; 'I' for Inactive)
REMARK    1  A    between atoms: N_1  and  S_2 
REMARK    2  A    between atoms: S_2  and  C_5 
REMARK    3  A    between atoms: C_8  and  C_9 
REMARK    4  A    between atoms: C_9  and  C_10 
REMARK    5  A    between atoms: C_14  and  N_15 
REMARK       I    between atoms: N_15  and  C_16 
REMARK       I    between atoms: C_16  and  N_18 
REMARK    6  A    between atoms: N_18  and  C_19 
REMARK    7  A    between atoms: C_20  and  C_21 
REMARK    8  A    between atoms: C_21  and  C_22 
REMARK    9  A    between atoms: C_22  and  N_23 
REMARK       I    between atoms: N_23  and  C_24 
REMARK   10  A    between atoms: C_24  and  C_26 
REMARK   11  A    between atoms: C_29  and  O_30 
ROOT
HETATM    1  C   LIG     1     -11.149  14.532  66.298  1.00  0.00     0.057 C 
HETATM    2  C   LIG     1     -11.207  13.265  66.762  1.00  0.00    -0.041 C 
HETATM    3  C   LIG     1     -11.823  12.176  65.897  1.00  0.00     0.034 C 
HETATM    4  C   LIG     1     -11.743  12.525  64.423  1.00  0.00     0.246 C 
HETATM    5  O   LIG     1     -11.439  11.669  63.598  1.00  0.00    -0.271 OA
HETATM    6  N   LIG     1     -12.104  13.808  64.100  1.00  0.00    -0.224 NA
HETATM    7  C   LIG     1     -11.835  14.724  64.977  1.00  0.00     0.032 C 
HETATM    8  H   LIG     1     -12.859  11.987  66.185  1.00  0.00     0.054 H 
HETATM    9  H   LIG     1     -11.274  11.235  65.977  1.00  0.00     0.054 H 
HETATM   10  H   LIG     1     -12.207  15.736  64.763  1.00  0.00     0.118 H 
ENDROOT
BRANCH   1  11
HETATM   11  N   LIG     1     -10.585  15.570  67.014  1.00  0.00    -0.307 N 
HETATM   12  C   LIG     1      -9.258  15.987  67.051  1.00  0.00     0.325 C 
HETATM   13  N   LIG     1      -9.126  17.054  67.936  1.00  0.00    -0.309 N 
HETATM   14  O   LIG     1      -8.360  15.457  66.411  1.00  0.00    -0.247 OA
HETATM   15  H   LIG     1      -9.978  17.505  68.231  1.00  0.00     0.170 HD
HETATM   16  H   LIG     1     -11.171  16.024  67.694  1.00  0.00     0.170 HD
BRANCH  13  17
HETATM   17  C   LIG     1      -7.958  17.745  68.324  1.00  0.00     0.036 A 
HETATM   18  C   LIG     1      -6.972  17.211  69.148  1.00  0.00    -0.057 A 
HETATM   19  C   LIG     1      -5.800  17.931  69.391  1.00  0.00    -0.080 A 
HETATM   20  H   LIG     1      -7.068  16.222  69.582  1.00  0.00     0.086 H 
HETATM   21  C   LIG     1      -5.619  19.202  68.841  1.00  0.00    -0.076 A 
HETATM   22  H   LIG     1      -5.012  17.484  69.995  1.00  0.00     0.083 H 
HETATM   23  C   LIG     1      -6.612  19.775  68.037  1.00  0.00    -0.052 A 
HETATM   24  H   LIG     1      -4.690  19.733  69.034  1.00  0.00     0.084 H 
HETATM   25  C   LIG     1      -7.779  19.035  67.789  1.00  0.00    -0.051 A 
HETATM   26  H   LIG     1      -8.551  19.479  67.165  1.00  0.00     0.087 H 
BRANCH  23  27
HETATM   27  C   LIG     1      -6.412  21.139  67.406  1.00  0.00    -0.017 C 
HETATM   28  H   LIG     1      -7.392  21.630  67.320  1.00  0.00     0.047 H 
HETATM   29  H   LIG     1      -5.831  21.783  68.079  1.00  0.00     0.047 H 
BRANCH  27  30
HETATM   30  C   LIG     1      -5.730  21.107  66.052  1.00  0.00    -0.054 A 
HETATM   31  C   LIG     1      -4.393  21.517  65.918  1.00  0.00    -0.075 A 
HETATM   32  C   LIG     1      -3.757  21.495  64.676  1.00  0.00    -0.060 A 
HETATM   33  H   LIG     1      -3.830  21.853  66.786  1.00  0.00     0.084 H 
HETATM   34  C   LIG     1      -4.464  21.074  63.549  1.00  0.00     0.074 A 
HETATM   35  H   LIG     1      -2.715  21.801  64.602  1.00  0.00     0.085 H 
HETATM   36  C   LIG     1      -5.798  20.672  63.657  1.00  0.00    -0.060 A 
HETATM   37  C   LIG     1      -6.429  20.694  64.906  1.00  0.00    -0.075 A 
HETATM   38  H   LIG     1      -6.347  20.342  62.778  1.00  0.00     0.085 H 
HETATM   39  H   LIG     1      -7.470  20.386  64.975  1.00  0.00     0.084 H 
BRANCH  34  40
HETATM   40  S   LIG     1      -3.665  21.021  61.970  1.00  0.00     0.239 S 
HETATM   41  O   LIG     1      -3.751  19.689  61.453  1.00  0.00    -0.206 OA
HETATM   42  O   LIG     1      -2.413  21.759  62.042  1.00  0.00    -0.206 OA
BRANCH  40  43
HETATM   43  N   LIG     1      -4.672  21.972  61.020  1.00  0.00    -0.225 NA
HETATM   44  H   LIG     1      -5.562  22.104  61.499  1.00  0.00     0.136 HD
HETATM   45  H   LIG     1      -4.761  21.558  60.092  1.00  0.00     0.136 HD
ENDBRANCH  40  43
ENDBRANCH  34  40
ENDBRANCH  27  30
ENDBRANCH  23  27
ENDBRANCH  13  17
ENDBRANCH   1  11
BRANCH   2  46
HETATM   46  C   LIG     1     -10.715  12.828  68.132  1.00  0.00    -0.027 C 
HETATM   47  H   LIG     1     -10.366  13.719  68.670  1.00  0.00     0.042 H 
HETATM   48  H   LIG     1      -9.857  12.154  68.032  1.00  0.00     0.042 H 
BRANCH  46  49
HETATM   49  C   LIG     1     -11.754  12.105  68.995  1.00  0.00    -0.001 C 
HETATM   50  H   LIG     1     -12.504  11.603  68.371  1.00  0.00     0.064 H 
HETATM   51  H   LIG     1     -12.303  12.828  69.605  1.00  0.00     0.064 H 
BRANCH  49  52
HETATM   52  N   LIG     1     -11.128  11.119  69.861  1.00  0.00    -0.360 N 
HETATM   53  C   LIG     1     -11.883  10.273  70.635  1.00  0.00     0.221 C 
HETATM   54  O   LIG     1     -13.104  10.374  70.699  1.00  0.00    -0.273 OA
HETATM   55  H   LIG     1     -10.147  10.903  69.734  1.00  0.00     0.162 HD
BRANCH  53  56
HETATM   56  C   LIG     1     -11.075   9.276  71.474  1.00  0.00     0.024 C 
HETATM   57  C   LIG     1     -12.017   8.324  72.228  1.00  0.00    -0.051 C 
HETATM   58  C   LIG     1     -12.646   7.263  71.317  1.00  0.00    -0.040 C 
HETATM   59  H   LIG     1     -12.818   8.890  72.720  1.00  0.00     0.034 H 
HETATM   60  H   LIG     1     -11.460   7.828  73.031  1.00  0.00     0.034 H 
HETATM   61  C   LIG     1     -11.614   6.509  70.480  1.00  0.00     0.035 C 
HETATM   62  H   LIG     1     -13.372   7.738  70.646  1.00  0.00     0.036 H 
HETATM   63  H   LIG     1     -13.206   6.557  71.942  1.00  0.00     0.036 H 
HETATM   64  C   LIG     1     -10.660   7.452  69.744  1.00  0.00    -0.040 C 
HETATM   65  H   LIG     1     -12.135   5.888  69.742  1.00  0.00     0.082 H 
HETATM   66  C   LIG     1     -10.028   8.491  70.670  1.00  0.00    -0.051 C 
HETATM   67  H   LIG     1     -11.202   7.970  68.942  1.00  0.00     0.036 H 
HETATM   68  H   LIG     1      -9.858   6.872  69.273  1.00  0.00     0.036 H 
HETATM   69  H   LIG     1      -9.393   9.155  70.074  1.00  0.00     0.034 H 
HETATM   70  H   LIG     1      -9.351   7.984  71.370  1.00  0.00     0.034 H 
HETATM   71  H   LIG     1     -10.545   9.885  72.221  1.00  0.00     0.054 H 
BRANCH  61  72
HETATM   72  O   LIG     1     -10.877   5.612  71.312  1.00  0.00    -0.396 OA
HETATM   73  H   LIG     1     -11.177   4.708  71.121  1.00  0.00     0.210 HD
ENDBRANCH  61  72
ENDBRANCH  53  56
ENDBRANCH  49  52
ENDBRANCH  46  49
ENDBRANCH   2  46
TORSDOF 11
ENDMDL
MODEL 4
REMARK VINA RESULT:      -7.2      3.865      9.797
REMARK  11 active torsions:
REMARK  status: ('A' for Active; 'I' for Inactive)
REMARK    1  A    between atoms: N_1  and  S_2 
REMARK    2  A    between atoms: S_2  and  C_5 
REMARK    3  A    between atoms: C_8  and  C_9 
REMARK    4  A    between atoms: C_9  and  C_10 
REMARK    5  A    between atoms: C_14  and  N_15 
REMARK       I    between atoms: N_15  and  C_16 
REMARK       I    between atoms: C_16  and  N_18 
REMARK    6  A    between atoms: N_18  and  C_19 
REMARK    7  A    between atoms: C_20  and  C_21 
REMARK    8  A    between atoms: C_21  and  C_22 
REMARK    9  A    between atoms: C_22  and  N_23 
REMARK       I    between atoms: N_23  and  C_24 
REMARK   10  A    between atoms: C_24  and  C_26 
REMARK   11  A    between atoms: C_29  and  O_30 
ROOT
HETATM    1  C   LIG     1     -11.249   8.426  70.695  1.00  0.00     0.057 C 
HETATM    2  C   LIG     1     -10.296   8.198  71.625  1.00  0.00    -0.041 C 
HETATM    3  C   LIG     1     -10.596   7.276  72.796  1.00  0.00     0.034 C 
HETATM    4  C   LIG     1     -11.688   6.281  72.456  1.00  0.00     0.246 C 
HETATM    5  O   LIG     1     -11.589   5.108  72.803  1.00  0.00    -0.271 OA
HETATM    6  N   LIG     1     -12.786   6.803  71.822  1.00  0.00    -0.224 NA
HETATM    7  C   LIG     1     -12.573   7.800  71.021  1.00  0.00     0.032 C 
HETATM    8  H   LIG     1     -10.871   7.849  73.684  1.00  0.00     0.054 H 
HETATM    9  H   LIG     1      -9.737   6.652  73.051  1.00  0.00     0.054 H 
HETATM   10  H   LIG     1     -13.461   8.281  70.585  1.00  0.00     0.118 H 
ENDROOT
BRANCH   1  11
HETATM   11  N   LIG     1     -11.045   9.232  69.592  1.00  0.00    -0.307 N 
HETATM   12  C   LIG     1     -11.513  10.521  69.353  1.00  0.00     0.325 C 
HETATM   13  N   LIG     1     -11.095  10.945  68.094  1.00  0.00    -0.309 N 
HETATM   14  O   LIG     1     -12.209  11.149  70.138  1.00  0.00    -0.247 OA
HETATM   15  H   LIG     1     -10.368  10.404  67.653  1.00  0.00     0.170 HD
HETATM   16  H   LIG     1     -10.599   8.809  68.796  1.00  0.00     0.170 HD
BRANCH  13  17
HETATM   17  C   LIG     1     -11.386  12.153  67.424  1.00  0.00     0.036 A 
HETATM   18  C   LIG     1     -11.866  12.226  66.120  1.00  0.00    -0.057 A 
HETATM   19  C   LIG     1     -12.227  13.461  65.576  1.00  0.00    -0.080 A 
HETATM   20  H   LIG     1     -12.010  11.336  65.515  1.00  0.00     0.086 H 
HETATM   21  C   LIG     1     -12.078  14.634  66.318  1.00  0.00    -0.076 A 
HETATM   22  H   LIG     1     -12.650  13.503  64.574  1.00  0.00     0.083 H 
HETATM   23  C   LIG     1     -11.564  14.591  67.620  1.00  0.00    -0.052 A 
HETATM   24  H   LIG     1     -12.381  15.581  65.876  1.00  0.00     0.084 H 
HETATM   25  C   LIG     1     -11.219  13.342  68.159  1.00  0.00    -0.051 A 
HETATM   26  H   LIG     1     -10.819  13.306  69.170  1.00  0.00     0.087 H 
BRANCH  23  27
HETATM   27  C   LIG     1     -11.430  15.854  68.447  1.00  0.00    -0.017 C 
HETATM   28  H   LIG     1     -12.395  16.380  68.439  1.00  0.00     0.047 H 
HETATM   29  H   LIG     1     -11.257  15.598  69.501  1.00  0.00     0.047 H 
BRANCH  27  30
HETATM   30  C   LIG     1     -10.329  16.789  67.986  1.00  0.00    -0.054 A 
HETATM   31  C   LIG     1      -9.424  16.388  66.989  1.00  0.00    -0.075 A 
HETATM   32  C   LIG     1      -8.406  17.240  66.561  1.00  0.00    -0.060 A 
HETATM   33  H   LIG     1      -9.509  15.405  66.531  1.00  0.00     0.084 H 
HETATM   34  C   LIG     1      -8.275  18.502  67.140  1.00  0.00     0.074 A 
HETATM   35  H   LIG     1      -7.728  16.912  65.775  1.00  0.00     0.085 H 
HETATM   36  C   LIG     1      -9.158  18.919  68.141  1.00  0.00    -0.060 A 
HETATM   37  C   LIG     1     -10.179  18.060  68.564  1.00  0.00    -0.075 A 
HETATM   38  H   LIG     1      -9.057  19.904  68.590  1.00  0.00     0.085 H 
HETATM   39  H   LIG     1     -10.854  18.393  69.350  1.00  0.00     0.084 H 
BRANCH  34  40
HETATM   40  S   LIG     1      -7.002  19.603  66.593  1.00  0.00     0.239 S 
HETATM   41  O   LIG     1      -6.948  19.573  65.163  1.00  0.00    -0.206 OA
HETATM   42  O   LIG     1      -5.823  19.425  67.429  1.00  0.00    -0.206 OA
BRANCH  40  43
HETATM   43  N   LIG     1      -7.610  21.108  67.022  1.00  0.00    -0.225 NA
HETATM   44  H   LIG     1      -8.433  21.312  66.456  1.00  0.00     0.136 HD
HETATM   45  H   LIG     1      -6.874  21.811  66.947  1.00  0.00     0.136 HD
ENDBRANCH  40  43
ENDBRANCH  34  40
ENDBRANCH  27  30
ENDBRANCH  23  27
ENDBRANCH  13  17
ENDBRANCH   1  11
BRANCH   2  46
HETATM   46  C   LIG     1      -8.913   8.829  71.610  1.00  0.00    -0.027 C 
HETATM   47  H   LIG     1      -8.769   9.359  72.559  1.00  0.00     0.042 H 
HETATM   48  H   LIG     1      -8.842   9.573  70.809  1.00  0.00     0.042 H 
BRANCH  46  49
HETATM   49  C   LIG     1      -7.754   7.846  71.412  1.00  0.00    -0.001 C 
HETATM   50  H   LIG     1      -7.611   7.220  72.301  1.00  0.00     0.064 H 
HETATM   51  H   LIG     1      -6.819   8.396  71.274  1.00  0.00     0.064 H 
BRANCH  49  52
HETATM   52  N   LIG     1      -7.982   6.985  70.262  1.00  0.00    -0.360 N 
HETATM   53  C   LIG     1      -7.968   7.489  68.986  1.00  0.00     0.221 C 
HETATM   54  O   LIG     1      -7.857   8.690  68.767  1.00  0.00    -0.273 OA
HETATM   55  H   LIG     1      -7.934   5.980  70.381  1.00  0.00     0.162 HD
BRANCH  53  56
HETATM   56  C   LIG     1      -8.202   6.449  67.882  1.00  0.00     0.024 C 
HETATM   57  C   LIG     1      -9.178   5.365  68.366  1.00  0.00    -0.051 C 
HETATM   58  C   LIG     1     -10.632   5.850  68.413  1.00  0.00    -0.040 C 
HETATM   59  H   LIG     1      -8.889   5.010  69.364  1.00  0.00     0.034 H 
HETATM   60  H   LIG     1      -9.107   4.495  67.703  1.00  0.00     0.034 H 
HETATM   61  C   LIG     1     -11.088   6.492  67.104  1.00  0.00     0.035 C 
HETATM   62  H   LIG     1     -10.752   6.574  69.227  1.00  0.00     0.036 H 
HETATM   63  H   LIG     1     -11.275   4.994  68.651  1.00  0.00     0.036 H 
HETATM   64  C   LIG     1     -10.109   7.558  66.607  1.00  0.00    -0.040 C 
HETATM   65  H   LIG     1     -12.069   6.957  67.255  1.00  0.00     0.082 H 
HETATM   66  C   LIG     1      -8.667   7.052  66.549  1.00  0.00    -0.051 C 
HETATM   67  H   LIG     1     -10.155   8.434  67.265  1.00  0.00     0.036 H 
HETATM   68  H   LIG     1     -10.402   7.889  65.604  1.00  0.00     0.036 H 
HETATM   69  H   LIG     1      -8.019   7.873  66.226  1.00  0.00     0.034 H 
HETATM   70  H   LIG     1      -8.587   6.287  65.766  1.00  0.00     0.034 H 
HETATM   71  H   LIG     1      -7.225   5.972  67.718  1.00  0.00     0.054 H 
BRANCH  61  72
HETATM   72  O   LIG     1     -11.270   5.485  66.107  1.00  0.00    -0.396 OA
HETATM   73  H   LIG     1     -12.189   5.530  65.797  1.00  0.00     0.210 HD
ENDBRANCH  61  72
ENDBRANCH  53  56
ENDBRANCH  49  52
ENDBRANCH  46  49
ENDBRANCH   2  46
TORSDOF 11
ENDMDL
MODEL 5
REMARK VINA RESULT:      -6.5      4.183      6.175
REMARK  11 active torsions:
REMARK  status: ('A' for Active; 'I' for Inactive)
REMARK    1  A    between atoms: N_1  and  S_2 
REMARK    2  A    between atoms: S_2  and  C_5 
REMARK    3  A    between atoms: C_8  and  C_9 
REMARK    4  A    between atoms: C_9  and  C_10 
REMARK    5  A    between atoms: C_14  and  N_15 
REMARK       I    between atoms: N_15  and  C_16 
REMARK       I    between atoms: C_16  and  N_18 
REMARK    6  A    between atoms: N_18  and  C_19 
REMARK    7  A    between atoms: C_20  and  C_21 
REMARK    8  A    between atoms: C_21  and  C_22 
REMARK    9  A    between atoms: C_22  and  N_23 
REMARK       I    between atoms: N_23  and  C_24 
REMARK   10  A    between atoms: C_24  and  C_26 
REMARK   11  A    between atoms: C_29  and  O_30 
ROOT
HETATM    1  C   LIG     1      -6.332  18.643  68.824  1.00  0.00     0.057 C 
HETATM    2  C   LIG     1      -5.079  18.213  69.090  1.00  0.00    -0.041 C 
HETATM    3  C   LIG     1      -3.962  19.227  69.281  1.00  0.00     0.034 C 
HETATM    4  C   LIG     1      -4.501  20.568  69.737  1.00  0.00     0.246 C 
HETATM    5  O   LIG     1      -3.922  21.205  70.613  1.00  0.00    -0.271 OA
HETATM    6  N   LIG     1      -5.600  21.025  69.057  1.00  0.00    -0.224 NA
HETATM    7  C   LIG     1      -6.433  20.127  68.631  1.00  0.00     0.032 C 
HETATM    8  H   LIG     1      -3.381  19.345  68.364  1.00  0.00     0.054 H 
HETATM    9  H   LIG     1      -3.276  18.930  70.078  1.00  0.00     0.054 H 
HETATM   10  H   LIG     1      -7.264  20.482  68.005  1.00  0.00     0.118 H 
ENDROOT
BRANCH   1  11
HETATM   11  N   LIG     1      -7.402  17.784  68.661  1.00  0.00    -0.307 N 
HETATM   12  C   LIG     1      -8.018  17.371  67.484  1.00  0.00     0.325 C 
HETATM   13  N   LIG     1      -9.084  16.527  67.785  1.00  0.00    -0.309 N 
HETATM   14  O   LIG     1      -7.671  17.735  66.369  1.00  0.00    -0.247 OA
HETATM   15  H   LIG     1      -9.121  16.163  68.724  1.00  0.00     0.170 HD
HETATM   16  H   LIG     1      -7.887  17.500  69.494  1.00  0.00     0.170 HD
BRANCH  13  17
HETATM   17  C   LIG     1     -10.014  15.926  66.909  1.00  0.00     0.036 A 
HETATM   18  C   LIG     1     -10.377  16.454  65.674  1.00  0.00    -0.057 A 
HETATM   19  C   LIG     1     -11.225  15.734  64.828  1.00  0.00    -0.080 A 
HETATM   20  H   LIG     1      -9.984  17.403  65.323  1.00  0.00     0.086 H 
HETATM   21  C   LIG     1     -11.743  14.500  65.225  1.00  0.00    -0.076 A 
HETATM   22  H   LIG     1     -11.462  16.131  63.843  1.00  0.00     0.083 H 
HETATM   23  C   LIG     1     -11.421  13.964  66.478  1.00  0.00    -0.052 A 
HETATM   24  H   LIG     1     -12.389  13.954  64.541  1.00  0.00     0.084 H 
HETATM   25  C   LIG     1     -10.556  14.691  67.311  1.00  0.00    -0.051 A 
HETATM   26  H   LIG     1     -10.305  14.276  68.285  1.00  0.00     0.087 H 
BRANCH  23  27
HETATM   27  C   LIG     1     -11.949  12.609  66.905  1.00  0.00    -0.017 C 
HETATM   28  H   LIG     1     -12.117  12.627  67.991  1.00  0.00     0.047 H 
HETATM   29  H   LIG     1     -12.942  12.437  66.468  1.00  0.00     0.047 H 
BRANCH  27  30
HETATM   30  C   LIG     1     -11.049  11.444  66.541  1.00  0.00    -0.054 A 
HETATM   31  C   LIG     1     -10.845  10.391  67.449  1.00  0.00    -0.075 A 
HETATM   32  C   LIG     1     -10.016   9.316  67.125  1.00  0.00    -0.060 A 
HETATM   33  H   LIG     1     -11.338  10.396  68.419  1.00  0.00     0.084 H 
HETATM   34  C   LIG     1      -9.370   9.294  65.889  1.00  0.00     0.074 A 
HETATM   35  H   LIG     1      -9.887   8.505  67.839  1.00  0.00     0.085 H 
HETATM   36  C   LIG     1      -9.550  10.335  64.974  1.00  0.00    -0.060 A 
HETATM   37  C   LIG     1     -10.386  11.409  65.304  1.00  0.00    -0.075 A 
HETATM   38  H   LIG     1      -9.049  10.315  64.010  1.00  0.00     0.085 H 
HETATM   39  H   LIG     1     -10.511  12.218  64.587  1.00  0.00     0.084 H 
BRANCH  34  40
HETATM   40  S   LIG     1      -8.332   7.928  65.455  1.00  0.00     0.239 S 
HETATM   41  O   LIG     1      -7.291   7.809  66.431  1.00  0.00    -0.206 OA
HETATM   42  O   LIG     1      -8.068   7.961  64.024  1.00  0.00    -0.206 OA
BRANCH  40  43
HETATM   43  N   LIG     1      -9.350   6.610  65.675  1.00  0.00    -0.225 NA
HETATM   44  H   LIG     1     -10.177   6.907  66.193  1.00  0.00     0.136 HD
HETATM   45  H   LIG     1      -8.837   5.849  66.119  1.00  0.00     0.136 HD
ENDBRANCH  40  43
ENDBRANCH  34  40
ENDBRANCH  27  30
ENDBRANCH  23  27
ENDBRANCH  13  17
ENDBRANCH   1  11
BRANCH   2  46
HETATM   46  C   LIG     1      -4.676  16.751  69.192  1.00  0.00    -0.027 C 
HETATM   47  H   LIG     1      -3.589  16.686  69.061  1.00  0.00     0.042 H 
HETATM   48  H   LIG     1      -5.134  16.171  68.383  1.00  0.00     0.042 H 
BRANCH  46  49
HETATM   49  C   LIG     1      -5.058  16.062  70.506  1.00  0.00    -0.001 C 
HETATM   50  H   LIG     1      -5.997  16.466  70.904  1.00  0.00     0.064 H 
HETATM   51  H   LIG     1      -4.297  16.260  71.267  1.00  0.00     0.064 H 
BRANCH  49  52
HETATM   52  N   LIG     1      -5.201  14.626  70.328  1.00  0.00    -0.360 N 
HETATM   53  C   LIG     1      -6.365  14.085  69.841  1.00  0.00     0.221 C 
HETATM   54  O   LIG     1      -7.357  14.774  69.626  1.00  0.00    -0.273 OA
HETATM   55  H   LIG     1      -4.375  14.041  70.353  1.00  0.00     0.162 HD
BRANCH  53  56
HETATM   56  C   LIG     1      -6.350  12.559  69.689  1.00  0.00     0.024 C 
HETATM   57  C   LIG     1      -7.534  12.096  68.825  1.00  0.00    -0.051 C 
HETATM   58  C   LIG     1      -7.334  12.388  67.333  1.00  0.00    -0.040 C 
HETATM   59  H   LIG     1      -8.461  12.577  69.161  1.00  0.00     0.034 H 
HETATM   60  H   LIG     1      -7.683  11.019  68.967  1.00  0.00     0.034 H 
HETATM   61  C   LIG     1      -5.997  11.875  66.800  1.00  0.00     0.035 C 
HETATM   62  H   LIG     1      -7.397  13.469  67.159  1.00  0.00     0.036 H 
HETATM   63  H   LIG     1      -8.158  11.927  66.776  1.00  0.00     0.036 H 
HETATM   64  C   LIG     1      -4.817  12.316  67.668  1.00  0.00    -0.040 C 
HETATM   65  H   LIG     1      -5.848  12.254  65.783  1.00  0.00     0.082 H 
HETATM   66  C   LIG     1      -5.025  12.001  69.150  1.00  0.00    -0.051 C 
HETATM   67  H   LIG     1      -4.658  13.396  67.551  1.00  0.00     0.036 H 
HETATM   68  H   LIG     1      -3.902  11.814  67.331  1.00  0.00     0.036 H 
HETATM   69  H   LIG     1      -4.166  12.378  69.714  1.00  0.00     0.034 H 
HETATM   70  H   LIG     1      -5.015  10.912  69.290  1.00  0.00     0.034 H 
HETATM   71  H   LIG     1      -6.500  12.162  70.703  1.00  0.00     0.054 H 
BRANCH  61  72
HETATM   72  O   LIG     1      -6.030  10.450  66.698  1.00  0.00    -0.396 OA
HETATM   73  H   LIG     1      -6.786  10.129  67.217  1.00  0.00     0.210 HD
ENDBRANCH  61  72
ENDBRANCH  53  56
ENDBRANCH  49  52
ENDBRANCH  46  49
ENDBRANCH   2  46
TORSDOF 11
ENDMDL
MODEL 6
REMARK VINA RESULT:      -6.0      6.272     11.645
REMARK  11 active torsions:
REMARK  status: ('A' for Active; 'I' for Inactive)
REMARK    1  A    between atoms: N_1  and  S_2 
REMARK    2  A    between atoms: S_2  and  C_5 
REMARK    3  A    between atoms: C_8  and  C_9 
REMARK    4  A    between atoms: C_9  and  C_10 
REMARK    5  A    between atoms: C_14  and  N_15 
REMARK       I    between atoms: N_15  and  C_16 
REMARK       I    between atoms: C_16  and  N_18 
REMARK    6  A    between atoms: N_18  and  C_19 
REMARK    7  A    between atoms: C_20  and  C_21 
REMARK    8  A    between atoms: C_21  and  C_22 
REMARK    9  A    between atoms: C_22  and  N_23 
REMARK       I    between atoms: N_23  and  C_24 
REMARK   10  A    between atoms: C_24  and  C_26 
REMARK   11  A    between atoms: C_29  and  O_30 
ROOT
HETATM    1  C   LIG     1      -4.160  19.166  62.287  1.00  0.00     0.057 C 
HETATM    2  C   LIG     1      -3.343  20.217  62.057  1.00  0.00    -0.041 C 
HETATM    3  C   LIG     1      -3.013  20.612  60.626  1.00  0.00     0.034 C 
HETATM    4  C   LIG     1      -4.095  20.167  59.663  1.00  0.00     0.246 C 
HETATM    5  O   LIG     1      -4.470  20.912  58.762  1.00  0.00    -0.271 OA
HETATM    6  N   LIG     1      -4.542  18.881  59.830  1.00  0.00    -0.224 NA
HETATM    7  C   LIG     1      -4.557  18.426  61.044  1.00  0.00     0.032 C 
HETATM    8  H   LIG     1      -2.046  20.207  60.322  1.00  0.00     0.054 H 
HETATM    9  H   LIG     1      -2.977  21.697  60.503  1.00  0.00     0.054 H 
HETATM   10  H   LIG     1      -4.824  17.367  61.171  1.00  0.00     0.118 H 
ENDROOT
BRANCH   1  11
HETATM   11  N   LIG     1      -4.524  18.761  63.557  1.00  0.00    -0.307 N 
HETATM   12  C   LIG     1      -5.554  19.235  64.363  1.00  0.00     0.325 C 
HETATM   13  N   LIG     1      -5.540  18.564  65.584  1.00  0.00    -0.309 N 
HETATM   14  O   LIG     1      -6.322  20.128  64.033  1.00  0.00    -0.247 OA
HETATM   15  H   LIG     1      -4.983  17.726  65.632  1.00  0.00     0.170 HD
HETATM   16  H   LIG     1      -3.905  18.121  64.024  1.00  0.00     0.170 HD
BRANCH  13  17
HETATM   17  C   LIG     1      -6.362  18.763  66.714  1.00  0.00     0.036 A 
HETATM   18  C   LIG     1      -5.905  19.245  67.937  1.00  0.00    -0.057 A 
HETATM   19  C   LIG     1      -6.812  19.510  68.966  1.00  0.00    -0.080 A 
HETATM   20  H   LIG     1      -4.856  19.464  68.106  1.00  0.00     0.086 H 
HETATM   21  C   LIG     1      -8.175  19.262  68.793  1.00  0.00    -0.076 A 
HETATM   22  H   LIG     1      -6.452  19.935  69.901  1.00  0.00     0.083 H 
HETATM   23  C   LIG     1      -8.655  18.744  67.584  1.00  0.00    -0.052 A 
HETATM   24  H   LIG     1      -8.861  19.492  69.606  1.00  0.00     0.084 H 
HETATM   25  C   LIG     1      -7.735  18.496  66.553  1.00  0.00    -0.051 A 
HETATM   26  H   LIG     1      -8.106  18.093  65.613  1.00  0.00     0.087 H 
BRANCH  23  27
HETATM   27  C   LIG     1     -10.137  18.504  67.373  1.00  0.00    -0.017 C 
HETATM   28  H   LIG     1     -10.639  18.541  68.350  1.00  0.00     0.047 H 
HETATM   29  H   LIG     1     -10.574  19.330  66.798  1.00  0.00     0.047 H 
BRANCH  27  30
HETATM   30  C   LIG     1     -10.465  17.198  66.674  1.00  0.00    -0.054 A 
HETATM   31  C   LIG     1     -10.824  17.187  65.316  1.00  0.00    -0.075 A 
HETATM   32  C   LIG     1     -11.131  15.992  64.665  1.00  0.00    -0.060 A 
HETATM   33  H   LIG     1     -10.862  18.115  64.749  1.00  0.00     0.084 H 
HETATM   34  C   LIG     1     -11.095  14.792  65.377  1.00  0.00     0.074 A 
HETATM   35  H   LIG     1     -11.390  16.008  63.608  1.00  0.00     0.085 H 
HETATM   36  C   LIG     1     -10.750  14.780  66.731  1.00  0.00    -0.060 A 
HETATM   37  C   LIG     1     -10.440  15.983  67.377  1.00  0.00    -0.075 A 
HETATM   38  H   LIG     1     -10.720  13.845  67.284  1.00  0.00     0.085 H 
HETATM   39  H   LIG     1     -10.182  15.961  68.434  1.00  0.00     0.084 H 
BRANCH  34  40
HETATM   40  S   LIG     1     -11.461  13.265  64.561  1.00  0.00     0.239 S 
HETATM   41  O   LIG     1     -12.337  12.495  65.391  1.00  0.00    -0.206 OA
HETATM   42  O   LIG     1     -10.238  12.721  63.990  1.00  0.00    -0.206 OA
BRANCH  40  43
HETATM   43  N   LIG     1     -12.369  13.766  63.239  1.00  0.00    -0.225 NA
HETATM   44  H   LIG     1     -11.766  13.819  62.418  1.00  0.00     0.136 HD
HETATM   45  H   LIG     1     -12.844  14.641  63.459  1.00  0.00     0.136 HD
ENDBRANCH  40  43
ENDBRANCH  34  40
ENDBRANCH  27  30
ENDBRANCH  23  27
ENDBRANCH  13  17
ENDBRANCH   1  11
BRANCH   2  46
HETATM   46  C   LIG     1      -2.685  21.049  63.146  1.00  0.00    -0.027 C 
HETATM   47  H   LIG     1      -1.758  21.472  62.741  1.00  0.00     0.042 H 
HETATM   48  H   LIG     1      -2.407  20.414  63.995  1.00  0.00     0.042 H 
BRANCH  46  49
HETATM   49  C   LIG     1      -3.546  22.187  63.703  1.00  0.00    -0.001 C 
HETATM   50  H   LIG     1      -3.895  21.957  64.718  1.00  0.00     0.064 H 
HETATM   51  H   LIG     1      -4.446  22.308  63.094  1.00  0.00     0.064 H 
BRANCH  49  52
HETATM   52  N   LIG     1      -2.810  23.441  63.732  1.00  0.00    -0.360 N 
HETATM   53  C   LIG     1      -2.199  23.877  64.881  1.00  0.00     0.221 C 
HETATM   54  O   LIG     1      -2.324  23.282  65.946  1.00  0.00    -0.273 OA
HETATM   55  H   LIG     1      -2.559  23.886  62.858  1.00  0.00     0.162 HD
BRANCH  53  56
HETATM   56  C   LIG     1      -1.443  25.205  64.742  1.00  0.00     0.024 C 
HETATM   57  C   LIG     1      -2.425  26.351  64.452  1.00  0.00    -0.051 C 
HETATM   58  C   LIG     1      -3.229  26.776  65.686  1.00  0.00    -0.040 C 
HETATM   59  H   LIG     1      -3.122  26.063  63.655  1.00  0.00     0.034 H 
HETATM   60  H   LIG     1      -1.867  27.214  64.069  1.00  0.00     0.034 H 
HETATM   61  C   LIG     1      -2.348  27.066  66.900  1.00  0.00     0.035 C 
HETATM   62  H   LIG     1      -3.946  25.988  65.946  1.00  0.00     0.036 H 
HETATM   63  H   LIG     1      -3.814  27.667  65.429  1.00  0.00     0.036 H 
HETATM   64  C   LIG     1      -1.355  25.937  67.182  1.00  0.00    -0.040 C 
HETATM   65  H   LIG     1      -2.985  27.203  67.781  1.00  0.00     0.082 H 
HETATM   66  C   LIG     1      -0.549  25.539  65.945  1.00  0.00    -0.051 C 
HETATM   67  H   LIG     1      -1.894  25.057  67.555  1.00  0.00     0.036 H 
HETATM   68  H   LIG     1      -0.656  26.247  67.967  1.00  0.00     0.036 H 
HETATM   69  H   LIG     1       0.110  24.704  66.207  1.00  0.00     0.034 H 
HETATM   70  H   LIG     1       0.120  26.366  65.671  1.00  0.00     0.034 H 
HETATM   71  H   LIG     1      -0.798  25.084  63.860  1.00  0.00     0.054 H 
BRANCH  61  72
HETATM   72  O   LIG     1      -1.652  28.300  66.710  1.00  0.00    -0.396 OA
HETATM   73  H   LIG     1      -2.269  28.934  66.309  1.00  0.00     0.210 HD
ENDBRANCH  61  72
ENDBRANCH  53  56
ENDBRANCH  49  52
ENDBRANCH  46  49
ENDBRANCH   2  46
TORSDOF 11
ENDMDL
