MODEL 1
REMARK minimizedAffinity -8.2971096
REMARK minimizedRMSD -1
REMARK  11 active torsions:
REMARK  status: ('A' for Active; 'I' for Inactive)
REMARK    1  A    between atoms: C_1  and  C_28 
REMARK    2  A    between atoms: C_6  and  N_7 
REMARK       I    between atoms: N_7  and  C_8 
REMARK       I    between atoms: C_8  and  N_10 
REMARK    3  A    between atoms: N_10  and  C_11 
REMARK    4  A    between atoms: C_15  and  C_16 
REMARK    5  A    between atoms: C_16  and  C_17 
REMARK    6  A    between atoms: C_20  and  S_21 
REMARK    7  A    between atoms: S_21  and  N_24 
REMARK    8  A    between atoms: C_28  and  C_29 
REMARK    9  A    between atoms: C_29  and  N_30 
REMARK       I    between atoms: N_30  and  C_31 
REMARK   10  A    between atoms: C_31  and  C_33 
REMARK   11  A    between atoms: C_37  and  O_41 
ROOT
HETATM    1  C   LIG     1     -11.089 -25.835   1.511  1.00  0.00    -0.027 A 
HETATM    2  C   LIG     1     -10.481 -25.519   2.738  1.00  0.00    -0.058 A 
HETATM    3  C   LIG     1     -11.089 -25.910   3.919  1.00  0.00     0.002 A 
HETATM    4  N   LIG     1     -12.275 -26.533   3.973  1.00  0.00    -0.271 NA
HETATM    5  C   LIG     1     -12.851 -26.838   2.782  1.00  0.00     0.028 A 
HETATM    6  C   LIG     1     -12.280 -26.582   1.533  1.00  0.00     0.060 A 
HETATM    7  H   LIG     1      -9.543 -24.975   2.781  1.00  0.00     0.086 H 
HETATM    8  H   LIG     1     -10.625 -25.720   4.882  1.00  0.00     0.114 H 
HETATM    9  H   LIG     1     -13.805 -27.341   2.899  1.00  0.00     0.118 H 
ENDROOT
BRANCH   6  10
HETATM   10  N   LIG     1     -12.821 -27.060   0.314  1.00  0.00    -0.307 N 
HETATM   11  C   LIG     1     -12.822 -28.369  -0.125  1.00  0.00     0.325 C 
HETATM   12  O   LIG     1     -12.240 -29.280   0.448  1.00  0.00    -0.247 OA
HETATM   13  N   LIG     1     -13.559 -28.503  -1.295  1.00  0.00    -0.309 N 
HETATM   14  H   LIG     1     -14.151 -27.728  -1.545  1.00  0.00     0.170 HD
HETATM   15  H   LIG     1     -13.055 -26.368  -0.377  1.00  0.00     0.170 HD
BRANCH  13  16
HETATM   16  C   LIG     1     -13.757 -29.703  -2.017  1.00  0.00     0.036 A 
HETATM   17  C   LIG     1     -14.895 -30.497  -1.862  1.00  0.00    -0.057 A 
HETATM   18  C   LIG     1     -15.092 -31.626  -2.646  1.00  0.00    -0.080 A 
HETATM   19  H   LIG     1     -15.679 -30.258  -1.154  1.00  0.00     0.086 H 
HETATM   20  C   LIG     1     -14.134 -31.997  -3.576  1.00  0.00    -0.076 A 
HETATM   21  H   LIG     1     -16.003 -32.206  -2.535  1.00  0.00     0.083 H 
HETATM   22  C   LIG     1     -12.957 -31.253  -3.734  1.00  0.00    -0.052 A 
HETATM   23  H   LIG     1     -14.334 -32.880  -4.174  1.00  0.00     0.084 H 
HETATM   24  C   LIG     1     -12.779 -30.099  -2.943  1.00  0.00    -0.051 A 
HETATM   25  H   LIG     1     -11.872 -29.510  -3.063  1.00  0.00     0.087 H 
BRANCH  22  26
HETATM   26  C   LIG     1     -11.889 -31.654  -4.732  1.00  0.00    -0.017 C 
HETATM   27  H   LIG     1     -11.484 -30.749  -5.203  1.00  0.00     0.047 H 
HETATM   28  H   LIG     1     -12.357 -32.237  -5.536  1.00  0.00     0.047 H 
BRANCH  26  29
HETATM   29  C   LIG     1     -10.734 -32.460  -4.167  1.00  0.00    -0.054 A 
HETATM   30  C   LIG     1     -10.607 -32.637  -2.780  1.00  0.00    -0.075 A 
HETATM   31  C   LIG     1      -9.533 -33.358  -2.253  1.00  0.00    -0.060 A 
HETATM   32  H   LIG     1     -11.342 -32.206  -2.103  1.00  0.00     0.084 H 
HETATM   33  C   LIG     1      -8.575 -33.893  -3.119  1.00  0.00     0.074 A 
HETATM   34  H   LIG     1      -9.460 -33.508  -1.179  1.00  0.00     0.085 H 
HETATM   35  C   LIG     1      -8.670 -33.697  -4.498  1.00  0.00    -0.060 A 
HETATM   36  C   LIG     1      -9.742 -32.973  -5.019  1.00  0.00    -0.075 A 
HETATM   37  H   LIG     1      -7.922 -34.112  -5.173  1.00  0.00     0.085 H 
HETATM   38  H   LIG     1      -9.801 -32.805  -6.093  1.00  0.00     0.084 H 
BRANCH  33  39
HETATM   39  S   LIG     1      -7.248 -34.876  -2.472  1.00  0.00     0.239 S 
HETATM   40  O   LIG     1      -6.034 -34.529  -3.202  1.00  0.00    -0.206 OA
HETATM   41  O   LIG     1      -7.316 -34.862  -1.044  1.00  0.00    -0.206 OA
BRANCH  39  42
HETATM   42  N   LIG     1      -7.700 -36.423  -2.950  1.00  0.00    -0.225 NA
HETATM   43  H   LIG     1      -8.470 -36.433  -3.620  1.00  0.00     0.136 HD
HETATM   44  H   LIG     1      -7.904 -36.975  -2.118  1.00  0.00     0.136 HD
ENDBRANCH  39  42
ENDBRANCH  33  39
ENDBRANCH  26  29
ENDBRANCH  22  26
ENDBRANCH  13  16
ENDBRANCH   6  10
BRANCH   1  45
HETATM   45  C   LIG     1     -10.442 -25.332   0.238  1.00  0.00    -0.024 C 
HETATM   46  H   LIG     1     -10.686 -26.028  -0.574  1.00  0.00     0.042 H 
HETATM   47  H   LIG     1      -9.350 -25.375   0.344  1.00  0.00     0.042 H 
BRANCH  45  48
HETATM   48  C   LIG     1     -10.817 -23.900  -0.181  1.00  0.00    -0.001 C 
HETATM   49  H   LIG     1      -9.964 -23.353  -0.591  1.00  0.00     0.064 H 
HETATM   50  H   LIG     1     -11.148 -23.351   0.709  1.00  0.00     0.064 H 
BRANCH  48  51
HETATM   51  N   LIG     1     -11.919 -23.844  -1.122  1.00  0.00    -0.360 N 
HETATM   52  C   LIG     1     -13.051 -23.081  -0.910  1.00  0.00     0.221 C 
HETATM   53  O   LIG     1     -13.225 -22.425   0.112  1.00  0.00    -0.273 OA
HETATM   54  H   LIG     1     -11.810 -24.335  -1.997  1.00  0.00     0.162 HD
BRANCH  52  55
HETATM   55  C   LIG     1     -14.129 -23.238  -1.989  1.00  0.00     0.024 C 
HETATM   56  H   LIG     1     -14.283 -22.213  -2.357  1.00  0.00     0.054 H 
HETATM   57  C   LIG     1     -13.653 -24.071  -3.191  1.00  0.00    -0.051 C 
HETATM   58  C   LIG     1     -13.671 -25.583  -2.944  1.00  0.00    -0.040 C 
HETATM   59  H   LIG     1     -12.645 -23.771  -3.503  1.00  0.00     0.034 H 
HETATM   60  H   LIG     1     -14.313 -23.853  -4.041  1.00  0.00     0.034 H 
HETATM   61  C   LIG     1     -15.009 -26.074  -2.399  1.00  0.00     0.035 C 
HETATM   62  H   LIG     1     -12.870 -25.855  -2.248  1.00  0.00     0.036 H 
HETATM   63  H   LIG     1     -13.457 -26.086  -3.895  1.00  0.00     0.036 H 
HETATM   64  H   LIG     1     -14.936 -27.129  -2.115  1.00  0.00     0.082 H 
HETATM   65  C   LIG     1     -15.477 -25.259  -1.197  1.00  0.00    -0.040 C 
HETATM   66  C   LIG     1     -15.474 -23.756  -1.466  1.00  0.00    -0.051 C 
HETATM   67  H   LIG     1     -14.839 -25.476  -0.335  1.00  0.00     0.036 H 
HETATM   68  H   LIG     1     -16.500 -25.552  -0.929  1.00  0.00     0.036 H 
HETATM   69  H   LIG     1     -15.786 -23.242  -0.552  1.00  0.00     0.034 H 
HETATM   70  H   LIG     1     -16.245 -23.522  -2.211  1.00  0.00     0.034 H 
BRANCH  61  71
HETATM   71  O   LIG     1     -16.002 -25.980  -3.418  1.00  0.00    -0.396 OA
HETATM   72  H   LIG     1     -15.691 -26.512  -4.173  1.00  0.00     0.210 HD
ENDBRANCH  61  71
ENDBRANCH  52  55
ENDBRANCH  48  51
ENDBRANCH  45  48
ENDBRANCH   1  45
TORSDOF 11
ENDMDL
MODEL 2
REMARK minimizedAffinity -8.02693081
REMARK minimizedRMSD -1
REMARK  11 active torsions:
REMARK  status: ('A' for Active; 'I' for Inactive)
REMARK    1  A    between atoms: C_1  and  C_28 
REMARK    2  A    between atoms: C_6  and  N_7 
REMARK       I    between atoms: N_7  and  C_8 
REMARK       I    between atoms: C_8  and  N_10 
REMARK    3  A    between atoms: N_10  and  C_11 
REMARK    4  A    between atoms: C_15  and  C_16 
REMARK    5  A    between atoms: C_16  and  C_17 
REMARK    6  A    between atoms: C_20  and  S_21 
REMARK    7  A    between atoms: S_21  and  N_24 
REMARK    8  A    between atoms: C_28  and  C_29 
REMARK    9  A    between atoms: C_29  and  N_30 
REMARK       I    between atoms: N_30  and  C_31 
REMARK   10  A    between atoms: C_31  and  C_33 
REMARK   11  A    between atoms: C_37  and  O_41 
ROOT
HETATM    1  C   LIG     1     -10.650 -25.946   1.899  1.00  0.00    -0.027 A 
HETATM    2  C   LIG     1     -10.640 -25.578   3.254  1.00  0.00    -0.058 A 
HETATM    3  C   LIG     1     -11.687 -25.966   4.073  1.00  0.00     0.002 A 
HETATM    4  N   LIG     1     -12.763 -26.636   3.635  1.00  0.00    -0.271 NA
HETATM    5  C   LIG     1     -12.761 -26.992   2.325  1.00  0.00     0.028 A 
HETATM    6  C   LIG     1     -11.714 -26.741   1.434  1.00  0.00     0.060 A 
HETATM    7  H   LIG     1      -9.828 -24.995   3.676  1.00  0.00     0.086 H 
HETATM    8  H   LIG     1     -11.690 -25.735   5.133  1.00  0.00     0.114 H 
HETATM    9  H   LIG     1     -13.657 -27.530   2.039  1.00  0.00     0.118 H 
ENDROOT
BRANCH   6  10
HETATM   10  N   LIG     1     -11.663 -27.268   0.120  1.00  0.00    -0.307 N 
HETATM   11  C   LIG     1     -12.320 -28.393  -0.337  1.00  0.00     0.325 C 
HETATM   12  O   LIG     1     -12.951 -29.154   0.383  1.00  0.00    -0.247 OA
HETATM   13  N   LIG     1     -12.160 -28.542  -1.709  1.00  0.00    -0.309 N 
HETATM   14  H   LIG     1     -11.798 -27.745  -2.209  1.00  0.00     0.170 HD
HETATM   15  H   LIG     1     -10.943 -26.909  -0.482  1.00  0.00     0.170 HD
BRANCH  13  16
HETATM   16  C   LIG     1     -12.691 -29.588  -2.498  1.00  0.00     0.036 A 
HETATM   17  C   LIG     1     -14.058 -29.722  -2.752  1.00  0.00    -0.057 A 
HETATM   18  C   LIG     1     -14.535 -30.716  -3.595  1.00  0.00    -0.080 A 
HETATM   19  H   LIG     1     -14.796 -29.050  -2.331  1.00  0.00     0.086 H 
HETATM   20  C   LIG     1     -13.653 -31.614  -4.173  1.00  0.00    -0.076 A 
HETATM   21  H   LIG     1     -15.598 -30.777  -3.808  1.00  0.00     0.083 H 
HETATM   22  C   LIG     1     -12.278 -31.543  -3.911  1.00  0.00    -0.052 A 
HETATM   23  H   LIG     1     -14.068 -32.368  -4.833  1.00  0.00     0.084 H 
HETATM   24  C   LIG     1     -11.806 -30.517  -3.066  1.00  0.00    -0.051 A 
HETATM   25  H   LIG     1     -10.739 -30.449  -2.862  1.00  0.00     0.087 H 
BRANCH  22  26
HETATM   26  C   LIG     1     -11.300 -32.529  -4.519  1.00  0.00    -0.017 C 
HETATM   27  H   LIG     1     -11.535 -33.536  -4.149  1.00  0.00     0.047 H 
HETATM   28  H   LIG     1     -10.290 -32.295  -4.156  1.00  0.00     0.047 H 
BRANCH  26  29
HETATM   29  C   LIG     1     -11.267 -32.569  -6.036  1.00  0.00    -0.054 A 
HETATM   30  C   LIG     1     -10.708 -31.502  -6.759  1.00  0.00    -0.075 A 
HETATM   31  C   LIG     1     -10.696 -31.523  -8.155  1.00  0.00    -0.060 A 
HETATM   32  H   LIG     1     -10.287 -30.646  -6.235  1.00  0.00     0.084 H 
HETATM   33  C   LIG     1     -11.258 -32.611  -8.830  1.00  0.00     0.074 A 
HETATM   34  H   LIG     1     -10.239 -30.702  -8.703  1.00  0.00     0.085 H 
HETATM   35  C   LIG     1     -11.847 -33.662  -8.125  1.00  0.00    -0.060 A 
HETATM   36  C   LIG     1     -11.859 -33.635  -6.731  1.00  0.00    -0.075 A 
HETATM   37  H   LIG     1     -12.286 -34.509  -8.651  1.00  0.00     0.085 H 
HETATM   38  H   LIG     1     -12.338 -34.447  -6.186  1.00  0.00     0.084 H 
BRANCH  33  39
HETATM   39  S   LIG     1     -11.181 -32.688 -10.600  1.00  0.00     0.239 S 
HETATM   40  O   LIG     1     -12.341 -33.440 -11.068  1.00  0.00    -0.206 OA
HETATM   41  O   LIG     1     -10.851 -31.393 -11.106  1.00  0.00    -0.206 OA
BRANCH  39  42
HETATM   42  N   LIG     1      -9.824 -33.650 -10.845  1.00  0.00    -0.225 NA
HETATM   43  H   LIG     1      -9.487 -34.102  -9.994  1.00  0.00     0.136 HD
HETATM   44  H   LIG     1      -9.103 -33.087 -11.296  1.00  0.00     0.136 HD
ENDBRANCH  39  42
ENDBRANCH  33  39
ENDBRANCH  26  29
ENDBRANCH  22  26
ENDBRANCH  13  16
ENDBRANCH   6  10
BRANCH   1  45
HETATM   45  C   LIG     1      -9.531 -25.447   1.009  1.00  0.00    -0.024 C 
HETATM   46  H   LIG     1      -9.452 -26.114   0.143  1.00  0.00     0.042 H 
HETATM   47  H   LIG     1      -8.575 -25.539   1.541  1.00  0.00     0.042 H 
BRANCH  45  48
HETATM   48  C   LIG     1      -9.661 -23.992   0.527  1.00  0.00    -0.001 C 
HETATM   49  H   LIG     1      -8.929 -23.747  -0.247  1.00  0.00     0.064 H 
HETATM   50  H   LIG     1      -9.462 -23.324   1.375  1.00  0.00     0.064 H 
BRANCH  48  51
HETATM   51  N   LIG     1     -10.989 -23.657   0.053  1.00  0.00    -0.360 N 
HETATM   52  C   LIG     1     -11.540 -24.205  -1.090  1.00  0.00     0.221 C 
HETATM   53  O   LIG     1     -10.928 -24.985  -1.811  1.00  0.00    -0.273 OA
HETATM   54  H   LIG     1     -11.551 -23.049   0.631  1.00  0.00     0.162 HD
BRANCH  52  55
HETATM   55  C   LIG     1     -12.920 -23.644  -1.455  1.00  0.00     0.024 C 
HETATM   56  H   LIG     1     -12.721 -22.588  -1.684  1.00  0.00     0.054 H 
HETATM   57  C   LIG     1     -13.499 -24.272  -2.735  1.00  0.00    -0.051 C 
HETATM   58  C   LIG     1     -14.111 -25.660  -2.523  1.00  0.00    -0.040 C 
HETATM   59  H   LIG     1     -12.738 -24.333  -3.522  1.00  0.00     0.034 H 
HETATM   60  H   LIG     1     -14.282 -23.605  -3.118  1.00  0.00     0.034 H 
HETATM   61  C   LIG     1     -15.107 -25.693  -1.366  1.00  0.00     0.035 C 
HETATM   62  H   LIG     1     -13.317 -26.393  -2.344  1.00  0.00     0.036 H 
HETATM   63  H   LIG     1     -14.620 -25.953  -3.450  1.00  0.00     0.036 H 
HETATM   64  H   LIG     1     -15.418 -26.724  -1.167  1.00  0.00     0.082 H 
HETATM   65  C   LIG     1     -14.530 -25.085  -0.091  1.00  0.00    -0.040 C 
HETATM   66  C   LIG     1     -13.943 -23.694  -0.314  1.00  0.00    -0.051 C 
HETATM   67  H   LIG     1     -13.757 -25.746   0.315  1.00  0.00     0.036 H 
HETATM   68  H   LIG     1     -15.319 -25.001   0.666  1.00  0.00     0.036 H 
HETATM   69  H   LIG     1     -13.521 -23.343   0.633  1.00  0.00     0.034 H 
HETATM   70  H   LIG     1     -14.755 -22.994  -0.550  1.00  0.00     0.034 H 
BRANCH  61  71
HETATM   71  O   LIG     1     -16.277 -24.960  -1.723  1.00  0.00    -0.396 OA
HETATM   72  H   LIG     1     -16.635 -25.367  -2.533  1.00  0.00     0.210 HD
ENDBRANCH  61  71
ENDBRANCH  52  55
ENDBRANCH  48  51
ENDBRANCH  45  48
ENDBRANCH   1  45
TORSDOF 11
ENDMDL
MODEL 3
REMARK minimizedAffinity -7.82240391
REMARK minimizedRMSD -1
REMARK  11 active torsions:
REMARK  status: ('A' for Active; 'I' for Inactive)
REMARK    1  A    between atoms: C_1  and  C_28 
REMARK    2  A    between atoms: C_6  and  N_7 
REMARK       I    between atoms: N_7  and  C_8 
REMARK       I    between atoms: C_8  and  N_10 
REMARK    3  A    between atoms: N_10  and  C_11 
REMARK    4  A    between atoms: C_15  and  C_16 
REMARK    5  A    between atoms: C_16  and  C_17 
REMARK    6  A    between atoms: C_20  and  S_21 
REMARK    7  A    between atoms: S_21  and  N_24 
REMARK    8  A    between atoms: C_28  and  C_29 
REMARK    9  A    between atoms: C_29  and  N_30 
REMARK       I    between atoms: N_30  and  C_31 
REMARK   10  A    between atoms: C_31  and  C_33 
REMARK   11  A    between atoms: C_37  and  O_41 
ROOT
HETATM    1  C   LIG     1      -9.654 -20.469  -1.960  1.00  0.00    -0.027 A 
HETATM    2  C   LIG     1     -10.018 -19.290  -2.630  1.00  0.00    -0.058 A 
HETATM    3  C   LIG     1     -11.132 -19.291  -3.454  1.00  0.00     0.002 A 
HETATM    4  N   LIG     1     -11.868 -20.383  -3.705  1.00  0.00    -0.271 NA
HETATM    5  C   LIG     1     -11.510 -21.516  -3.049  1.00  0.00     0.028 A 
HETATM    6  C   LIG     1     -10.469 -21.604  -2.120  1.00  0.00     0.060 A 
HETATM    7  H   LIG     1      -9.447 -18.374  -2.517  1.00  0.00     0.086 H 
HETATM    8  H   LIG     1     -11.466 -18.387  -3.952  1.00  0.00     0.114 H 
HETATM    9  H   LIG     1     -12.146 -22.359  -3.296  1.00  0.00     0.118 H 
ENDROOT
BRANCH   6  10
HETATM   10  N   LIG     1     -10.224 -22.751  -1.327  1.00  0.00    -0.307 N 
HETATM   11  C   LIG     1     -11.070 -23.284  -0.373  1.00  0.00     0.325 C 
HETATM   12  O   LIG     1     -12.108 -22.750  -0.010  1.00  0.00    -0.247 OA
HETATM   13  N   LIG     1     -10.577 -24.489   0.113  1.00  0.00    -0.309 N 
HETATM   14  H   LIG     1      -9.830 -24.915  -0.412  1.00  0.00     0.170 HD
HETATM   15  H   LIG     1      -9.282 -23.100  -1.317  1.00  0.00     0.170 HD
BRANCH  13  16
HETATM   16  C   LIG     1     -11.187 -25.294   1.103  1.00  0.00     0.036 A 
HETATM   17  C   LIG     1     -10.644 -25.459   2.380  1.00  0.00    -0.057 A 
HETATM   18  C   LIG     1     -11.312 -26.192   3.351  1.00  0.00    -0.080 A 
HETATM   19  H   LIG     1      -9.706 -25.007   2.675  1.00  0.00     0.086 H 
HETATM   20  C   LIG     1     -12.519 -26.801   3.049  1.00  0.00    -0.076 A 
HETATM   21  H   LIG     1     -10.890 -26.275   4.348  1.00  0.00     0.083 H 
HETATM   22  C   LIG     1     -13.079 -26.697   1.768  1.00  0.00    -0.052 A 
HETATM   23  H   LIG     1     -13.011 -27.355   3.841  1.00  0.00     0.084 H 
HETATM   24  C   LIG     1     -12.398 -25.934   0.797  1.00  0.00    -0.051 A 
HETATM   25  H   LIG     1     -12.827 -25.840  -0.199  1.00  0.00     0.087 H 
BRANCH  22  26
HETATM   26  C   LIG     1     -14.389 -27.371   1.414  1.00  0.00    -0.017 C 
HETATM   27  H   LIG     1     -15.130 -26.600   1.164  1.00  0.00     0.047 H 
HETATM   28  H   LIG     1     -14.772 -27.890   2.303  1.00  0.00     0.047 H 
BRANCH  26  29
HETATM   29  C   LIG     1     -14.325 -28.366   0.269  1.00  0.00    -0.054 A 
HETATM   30  C   LIG     1     -15.427 -28.533  -0.585  1.00  0.00    -0.075 A 
HETATM   31  C   LIG     1     -15.382 -29.463  -1.626  1.00  0.00    -0.060 A 
HETATM   32  H   LIG     1     -16.329 -27.942  -0.437  1.00  0.00     0.084 H 
HETATM   33  C   LIG     1     -14.233 -30.239  -1.803  1.00  0.00     0.074 A 
HETATM   34  H   LIG     1     -16.233 -29.565  -2.295  1.00  0.00     0.085 H 
HETATM   35  C   LIG     1     -13.143 -30.109  -0.941  1.00  0.00    -0.060 A 
HETATM   36  C   LIG     1     -13.194 -29.180   0.098  1.00  0.00    -0.075 A 
HETATM   37  H   LIG     1     -12.248 -30.715  -1.078  1.00  0.00     0.085 H 
HETATM   38  H   LIG     1     -12.350 -29.097   0.781  1.00  0.00     0.084 H 
BRANCH  33  39
HETATM   39  S   LIG     1     -14.132 -31.370  -3.166  1.00  0.00     0.239 S 
HETATM   40  O   LIG     1     -14.482 -30.642  -4.381  1.00  0.00    -0.206 OA
HETATM   41  O   LIG     1     -12.928 -32.131  -3.047  1.00  0.00    -0.206 OA
BRANCH  39  42
HETATM   42  N   LIG     1     -15.394 -32.428  -2.830  1.00  0.00    -0.225 NA
HETATM   43  H   LIG     1     -16.012 -32.101  -2.086  1.00  0.00     0.136 HD
HETATM   44  H   LIG     1     -15.003 -33.349  -2.632  1.00  0.00     0.136 HD
ENDBRANCH  39  42
ENDBRANCH  33  39
ENDBRANCH  26  29
ENDBRANCH  22  26
ENDBRANCH  13  16
ENDBRANCH   6  10
BRANCH   1  45
HETATM   45  C   LIG     1      -8.390 -20.460  -1.125  1.00  0.00    -0.024 C 
HETATM   46  H   LIG     1      -7.733 -19.665  -1.497  1.00  0.00     0.042 H 
HETATM   47  H   LIG     1      -7.841 -21.396  -1.287  1.00  0.00     0.042 H 
BRANCH  45  48
HETATM   48  C   LIG     1      -8.594 -20.292   0.391  1.00  0.00    -0.001 C 
HETATM   49  H   LIG     1      -9.642 -20.118   0.649  1.00  0.00     0.064 H 
HETATM   50  H   LIG     1      -8.034 -19.409   0.723  1.00  0.00     0.064 H 
BRANCH  48  51
HETATM   51  N   LIG     1      -8.088 -21.407   1.168  1.00  0.00    -0.360 N 
HETATM   52  C   LIG     1      -6.827 -21.420   1.732  1.00  0.00     0.221 C 
HETATM   53  O   LIG     1      -6.025 -20.504   1.581  1.00  0.00    -0.273 OA
HETATM   54  H   LIG     1      -8.722 -22.170   1.356  1.00  0.00     0.162 HD
BRANCH  52  55
HETATM   55  C   LIG     1      -6.464 -22.733   2.437  1.00  0.00     0.024 C 
HETATM   56  H   LIG     1      -6.657 -22.522   3.498  1.00  0.00     0.054 H 
HETATM   57  C   LIG     1      -7.389 -23.897   2.042  1.00  0.00    -0.051 C 
HETATM   58  C   LIG     1      -7.054 -24.524   0.686  1.00  0.00    -0.040 C 
HETATM   59  H   LIG     1      -8.439 -23.581   2.040  1.00  0.00     0.034 H 
HETATM   60  H   LIG     1      -7.306 -24.675   2.812  1.00  0.00     0.034 H 
HETATM   61  C   LIG     1      -5.579 -24.895   0.558  1.00  0.00     0.035 C 
HETATM   62  H   LIG     1      -7.329 -23.835  -0.121  1.00  0.00     0.036 H 
HETATM   63  H   LIG     1      -7.668 -25.425   0.566  1.00  0.00     0.036 H 
HETATM   64  H   LIG     1      -5.358 -25.215  -0.465  1.00  0.00     0.082 H 
HETATM   65  C   LIG     1      -4.658 -23.737   0.934  1.00  0.00    -0.040 C 
HETATM   66  C   LIG     1      -4.991 -23.137   2.297  1.00  0.00    -0.051 C 
HETATM   67  H   LIG     1      -4.716 -22.957   0.168  1.00  0.00     0.036 H 
HETATM   68  H   LIG     1      -3.619 -24.088   0.965  1.00  0.00     0.036 H 
HETATM   69  H   LIG     1      -4.315 -22.296   2.478  1.00  0.00     0.034 H 
HETATM   70  H   LIG     1      -4.762 -23.871   3.080  1.00  0.00     0.034 H 
BRANCH  61  71
HETATM   71  O   LIG     1      -5.288 -25.995   1.417  1.00  0.00    -0.396 OA
HETATM   72  H   LIG     1      -5.878 -26.726   1.158  1.00  0.00     0.210 HD
ENDBRANCH  61  71
ENDBRANCH  52  55
ENDBRANCH  48  51
ENDBRANCH  45  48
ENDBRANCH   1  45
TORSDOF 11
ENDMDL
MODEL 4
REMARK minimizedAffinity -6.55537176
REMARK minimizedRMSD -1
REMARK  11 active torsions:
REMARK  status: ('A' for Active; 'I' for Inactive)
REMARK    1  A    between atoms: C_1  and  C_28 
REMARK    2  A    between atoms: C_6  and  N_7 
REMARK       I    between atoms: N_7  and  C_8 
REMARK       I    between atoms: C_8  and  N_10 
REMARK    3  A    between atoms: N_10  and  C_11 
REMARK    4  A    between atoms: C_15  and  C_16 
REMARK    5  A    between atoms: C_16  and  C_17 
REMARK    6  A    between atoms: C_20  and  S_21 
REMARK    7  A    between atoms: S_21  and  N_24 
REMARK    8  A    between atoms: C_28  and  C_29 
REMARK    9  A    between atoms: C_29  and  N_30 
REMARK       I    between atoms: N_30  and  C_31 
REMARK   10  A    between atoms: C_31  and  C_33 
REMARK   11  A    between atoms: C_37  and  O_41 
ROOT
HETATM    1  C   LIG     1      -5.133 -22.940   1.127  1.00  0.00    -0.027 A 
HETATM    2  C   LIG     1      -3.898 -23.203   1.743  1.00  0.00    -0.058 A 
HETATM    3  C   LIG     1      -3.475 -24.514   1.887  1.00  0.00     0.002 A 
HETATM    4  N   LIG     1      -4.209 -25.575   1.522  1.00  0.00    -0.271 NA
HETATM    5  C   LIG     1      -5.398 -25.309   0.923  1.00  0.00     0.028 A 
HETATM    6  C   LIG     1      -5.877 -24.028   0.637  1.00  0.00     0.060 A 
HETATM    7  H   LIG     1      -3.265 -22.401   2.109  1.00  0.00     0.086 H 
HETATM    8  H   LIG     1      -2.509 -24.751   2.319  1.00  0.00     0.114 H 
HETATM    9  H   LIG     1      -5.938 -26.210   0.653  1.00  0.00     0.118 H 
ENDROOT
BRANCH   6  10
HETATM   10  N   LIG     1      -7.037 -23.782  -0.137  1.00  0.00    -0.307 N 
HETATM   11  C   LIG     1      -8.346 -23.914   0.284  1.00  0.00     0.325 C 
HETATM   12  O   LIG     1      -8.669 -24.380   1.368  1.00  0.00    -0.247 OA
HETATM   13  N   LIG     1      -9.231 -23.457  -0.685  1.00  0.00    -0.309 N 
HETATM   14  H   LIG     1      -8.835 -22.913  -1.435  1.00  0.00     0.170 HD
HETATM   15  H   LIG     1      -6.906 -23.687  -1.128  1.00  0.00     0.170 HD
BRANCH  13  16
HETATM   16  C   LIG     1     -10.641 -23.456  -0.585  1.00  0.00     0.036 A 
HETATM   17  C   LIG     1     -11.401 -24.627  -0.626  1.00  0.00    -0.057 A 
HETATM   18  C   LIG     1     -12.777 -24.593  -0.445  1.00  0.00    -0.080 A 
HETATM   19  H   LIG     1     -10.957 -25.604  -0.772  1.00  0.00     0.086 H 
HETATM   20  C   LIG     1     -13.420 -23.381  -0.252  1.00  0.00    -0.076 A 
HETATM   21  H   LIG     1     -13.343 -25.520  -0.443  1.00  0.00     0.083 H 
HETATM   22  C   LIG     1     -12.701 -22.177  -0.246  1.00  0.00    -0.052 A 
HETATM   23  H   LIG     1     -14.494 -23.403  -0.104  1.00  0.00     0.084 H 
HETATM   24  C   LIG     1     -11.301 -22.229  -0.414  1.00  0.00    -0.051 A 
HETATM   25  H   LIG     1     -10.733 -21.301  -0.404  1.00  0.00     0.087 H 
BRANCH  22  26
HETATM   26  C   LIG     1     -13.388 -20.840  -0.056  1.00  0.00    -0.017 C 
HETATM   27  H   LIG     1     -12.624 -20.065   0.091  1.00  0.00     0.047 H 
HETATM   28  H   LIG     1     -13.976 -20.873   0.871  1.00  0.00     0.047 H 
BRANCH  26  29
HETATM   29  C   LIG     1     -14.302 -20.407  -1.188  1.00  0.00    -0.054 A 
HETATM   30  C   LIG     1     -13.884 -19.421  -2.096  1.00  0.00    -0.075 A 
HETATM   31  C   LIG     1     -14.729 -19.002  -3.126  1.00  0.00    -0.060 A 
HETATM   32  H   LIG     1     -12.898 -18.970  -1.999  1.00  0.00     0.084 H 
HETATM   33  C   LIG     1     -16.005 -19.563  -3.237  1.00  0.00     0.074 A 
HETATM   34  H   LIG     1     -14.384 -18.255  -3.836  1.00  0.00     0.085 H 
HETATM   35  C   LIG     1     -16.447 -20.520  -2.322  1.00  0.00    -0.060 A 
HETATM   36  C   LIG     1     -15.600 -20.933  -1.294  1.00  0.00    -0.075 A 
HETATM   37  H   LIG     1     -17.442 -20.956  -2.407  1.00  0.00     0.085 H 
HETATM   38  H   LIG     1     -15.957 -21.663  -0.569  1.00  0.00     0.084 H 
BRANCH  33  39
HETATM   39  S   LIG     1     -17.061 -19.097  -4.584  1.00  0.00     0.239 S 
HETATM   40  O   LIG     1     -18.332 -19.794  -4.420  1.00  0.00    -0.206 OA
HETATM   41  O   LIG     1     -16.979 -17.683  -4.768  1.00  0.00    -0.206 OA
BRANCH  39  42
HETATM   42  N   LIG     1     -16.271 -19.790  -5.897  1.00  0.00    -0.225 NA
HETATM   43  H   LIG     1     -15.528 -20.438  -5.629  1.00  0.00     0.136 HD
HETATM   44  H   LIG     1     -15.934 -19.045  -6.505  1.00  0.00     0.136 HD
ENDBRANCH  39  42
ENDBRANCH  33  39
ENDBRANCH  26  29
ENDBRANCH  22  26
ENDBRANCH  13  16
ENDBRANCH   6  10
BRANCH   1  45
HETATM   45  C   LIG     1      -5.605 -21.503   1.048  1.00  0.00    -0.024 C 
HETATM   46  H   LIG     1      -5.956 -21.308   0.028  1.00  0.00     0.042 H 
HETATM   47  H   LIG     1      -4.750 -20.831   1.199  1.00  0.00     0.042 H 
BRANCH  45  48
HETATM   48  C   LIG     1      -6.699 -21.104   2.054  1.00  0.00    -0.001 C 
HETATM   49  H   LIG     1      -7.517 -21.829   2.082  1.00  0.00     0.064 H 
HETATM   50  H   LIG     1      -7.133 -20.148   1.736  1.00  0.00     0.064 H 
BRANCH  48  51
HETATM   51  N   LIG     1      -6.199 -20.894   3.398  1.00  0.00    -0.360 N 
HETATM   52  C   LIG     1      -6.354 -21.820   4.412  1.00  0.00     0.221 C 
HETATM   53  O   LIG     1      -6.963 -22.874   4.258  1.00  0.00    -0.273 OA
HETATM   54  H   LIG     1      -5.655 -20.061   3.569  1.00  0.00     0.162 HD
BRANCH  52  55
HETATM   55  C   LIG     1      -5.828 -21.357   5.776  1.00  0.00     0.024 C 
HETATM   56  H   LIG     1      -4.743 -21.518   5.706  1.00  0.00     0.054 H 
HETATM   57  C   LIG     1      -6.036 -19.852   6.016  1.00  0.00    -0.051 C 
HETATM   58  C   LIG     1      -7.463 -19.482   6.432  1.00  0.00    -0.040 C 
HETATM   59  H   LIG     1      -5.760 -19.271   5.127  1.00  0.00     0.034 H 
HETATM   60  H   LIG     1      -5.351 -19.535   6.812  1.00  0.00     0.034 H 
HETATM   61  C   LIG     1      -7.972 -20.324   7.598  1.00  0.00     0.035 C 
HETATM   62  H   LIG     1      -8.140 -19.591   5.578  1.00  0.00     0.036 H 
HETATM   63  H   LIG     1      -7.471 -18.422   6.717  1.00  0.00     0.036 H 
HETATM   64  H   LIG     1      -9.033 -20.119   7.776  1.00  0.00     0.082 H 
HETATM   65  C   LIG     1      -7.781 -21.819   7.357  1.00  0.00    -0.040 C 
HETATM   66  C   LIG     1      -6.350 -22.175   6.963  1.00  0.00    -0.051 C 
HETATM   67  H   LIG     1      -8.468 -22.156   6.575  1.00  0.00     0.036 H 
HETATM   68  H   LIG     1      -8.028 -22.374   8.271  1.00  0.00     0.036 H 
HETATM   69  H   LIG     1      -6.302 -23.252   6.774  1.00  0.00     0.034 H 
HETATM   70  H   LIG     1      -5.686 -21.998   7.819  1.00  0.00     0.034 H 
BRANCH  61  71
HETATM   71  O   LIG     1      -7.269 -19.969   8.787  1.00  0.00    -0.396 OA
HETATM   72  H   LIG     1      -7.408 -19.015   8.929  1.00  0.00     0.210 HD
ENDBRANCH  61  71
ENDBRANCH  52  55
ENDBRANCH  48  51
ENDBRANCH  45  48
ENDBRANCH   1  45
TORSDOF 11
ENDMDL
MODEL 5
REMARK minimizedAffinity -5.56904745
REMARK minimizedRMSD -1
REMARK  11 active torsions:
REMARK  status: ('A' for Active; 'I' for Inactive)
REMARK    1  A    between atoms: C_1  and  C_28 
REMARK    2  A    between atoms: C_6  and  N_7 
REMARK       I    between atoms: N_7  and  C_8 
REMARK       I    between atoms: C_8  and  N_10 
REMARK    3  A    between atoms: N_10  and  C_11 
REMARK    4  A    between atoms: C_15  and  C_16 
REMARK    5  A    between atoms: C_16  and  C_17 
REMARK    6  A    between atoms: C_20  and  S_21 
REMARK    7  A    between atoms: S_21  and  N_24 
REMARK    8  A    between atoms: C_28  and  C_29 
REMARK    9  A    between atoms: C_29  and  N_30 
REMARK       I    between atoms: N_30  and  C_31 
REMARK   10  A    between atoms: C_31  and  C_33 
REMARK   11  A    between atoms: C_37  and  O_41 
ROOT
HETATM    1  C   LIG     1      -6.201 -22.885  -1.759  1.00  0.00    -0.027 A 
HETATM    2  C   LIG     1      -4.823 -22.757  -1.996  1.00  0.00    -0.058 A 
HETATM    3  C   LIG     1      -4.066 -21.932  -1.180  1.00  0.00     0.002 A 
HETATM    4  N   LIG     1      -4.584 -21.186  -0.194  1.00  0.00    -0.271 NA
HETATM    5  C   LIG     1      -5.916 -21.322   0.030  1.00  0.00     0.028 A 
HETATM    6  C   LIG     1      -6.755 -22.198  -0.664  1.00  0.00     0.060 A 
HETATM    7  H   LIG     1      -4.334 -23.291  -2.804  1.00  0.00     0.086 H 
HETATM    8  H   LIG     1      -2.992 -21.843  -1.308  1.00  0.00     0.114 H 
HETATM    9  H   LIG     1      -6.268 -20.693   0.840  1.00  0.00     0.118 H 
ENDROOT
BRANCH   6  10
HETATM   10  N   LIG     1      -8.102 -22.443  -0.301  1.00  0.00    -0.307 N 
HETATM   11  C   LIG     1      -9.177 -21.606  -0.527  1.00  0.00     0.325 C 
HETATM   12  O   LIG     1      -9.075 -20.474  -0.978  1.00  0.00    -0.247 OA
HETATM   13  N   LIG     1     -10.371 -22.219  -0.168  1.00  0.00    -0.309 N 
HETATM   14  H   LIG     1     -10.336 -23.213  -0.008  1.00  0.00     0.170 HD
HETATM   15  H   LIG     1      -8.264 -23.198   0.342  1.00  0.00     0.170 HD
BRANCH  13  16
HETATM   16  C   LIG     1     -11.658 -21.643  -0.260  1.00  0.00     0.036 A 
HETATM   17  C   LIG     1     -11.946 -20.360   0.212  1.00  0.00    -0.057 A 
HETATM   18  C   LIG     1     -13.202 -19.797   0.032  1.00  0.00    -0.080 A 
HETATM   19  H   LIG     1     -11.207 -19.743   0.708  1.00  0.00     0.086 H 
HETATM   20  C   LIG     1     -14.202 -20.523  -0.594  1.00  0.00    -0.076 A 
HETATM   21  H   LIG     1     -13.392 -18.783   0.373  1.00  0.00     0.083 H 
HETATM   22  C   LIG     1     -13.970 -21.830  -1.045  1.00  0.00    -0.052 A 
HETATM   23  H   LIG     1     -15.165 -20.040  -0.722  1.00  0.00     0.084 H 
HETATM   24  C   LIG     1     -12.683 -22.382  -0.871  1.00  0.00    -0.051 A 
HETATM   25  H   LIG     1     -12.490 -23.393  -1.224  1.00  0.00     0.087 H 
BRANCH  22  26
HETATM   26  C   LIG     1     -15.056 -22.646  -1.714  1.00  0.00    -0.017 C 
HETATM   27  H   LIG     1     -14.965 -22.535  -2.803  1.00  0.00     0.047 H 
HETATM   28  H   LIG     1     -16.034 -22.227  -1.442  1.00  0.00     0.047 H 
BRANCH  26  29
HETATM   29  C   LIG     1     -15.062 -24.128  -1.382  1.00  0.00    -0.054 A 
HETATM   30  C   LIG     1     -15.313 -24.557  -0.069  1.00  0.00    -0.075 A 
HETATM   31  C   LIG     1     -15.297 -25.917   0.248  1.00  0.00    -0.060 A 
HETATM   32  H   LIG     1     -15.515 -23.830   0.716  1.00  0.00     0.084 H 
HETATM   33  C   LIG     1     -15.014 -26.851  -0.754  1.00  0.00     0.074 A 
HETATM   34  H   LIG     1     -15.516 -26.237   1.263  1.00  0.00     0.085 H 
HETATM   35  C   LIG     1     -14.730 -26.437  -2.057  1.00  0.00    -0.060 A 
HETATM   36  C   LIG     1     -14.744 -25.077  -2.367  1.00  0.00    -0.075 A 
HETATM   37  H   LIG     1     -14.508 -27.164  -2.837  1.00  0.00     0.085 H 
HETATM   38  H   LIG     1     -14.501 -24.758  -3.379  1.00  0.00     0.084 H 
BRANCH  33  39
HETATM   39  S   LIG     1     -15.066 -28.584  -0.386  1.00  0.00     0.239 S 
HETATM   40  O   LIG     1     -15.485 -29.289  -1.593  1.00  0.00    -0.206 OA
HETATM   41  O   LIG     1     -13.886 -28.938   0.339  1.00  0.00    -0.206 OA
BRANCH  39  42
HETATM   42  N   LIG     1     -16.336 -28.666   0.713  1.00  0.00    -0.225 NA
HETATM   43  H   LIG     1     -16.879 -27.803   0.771  1.00  0.00     0.136 HD
HETATM   44  H   LIG     1     -15.965 -28.951   1.619  1.00  0.00     0.136 HD
ENDBRANCH  39  42
ENDBRANCH  33  39
ENDBRANCH  26  29
ENDBRANCH  22  26
ENDBRANCH  13  16
ENDBRANCH   6  10
BRANCH   1  45
HETATM   45  C   LIG     1      -7.018 -23.735  -2.710  1.00  0.00    -0.024 C 
HETATM   46  H   LIG     1      -7.824 -24.215  -2.143  1.00  0.00     0.042 H 
HETATM   47  H   LIG     1      -6.395 -24.557  -3.089  1.00  0.00     0.042 H 
BRANCH  45  48
HETATM   48  C   LIG     1      -7.610 -22.998  -3.923  1.00  0.00    -0.001 C 
HETATM   49  H   LIG     1      -7.398 -23.513  -4.864  1.00  0.00     0.064 H 
HETATM   50  H   LIG     1      -7.144 -22.007  -3.992  1.00  0.00     0.064 H 
BRANCH  48  51
HETATM   51  N   LIG     1      -9.037 -22.765  -3.817  1.00  0.00    -0.360 N 
HETATM   52  C   LIG     1      -9.653 -21.628  -4.306  1.00  0.00     0.221 C 
HETATM   53  O   LIG     1      -9.029 -20.712  -4.832  1.00  0.00    -0.273 OA
HETATM   54  H   LIG     1      -9.603 -23.505  -3.428  1.00  0.00     0.162 HD
BRANCH  52  55
HETATM   55  C   LIG     1     -11.155 -21.546  -4.007  1.00  0.00     0.024 C 
HETATM   56  H   LIG     1     -11.272 -22.139  -3.089  1.00  0.00     0.054 H 
HETATM   57  C   LIG     1     -11.619 -20.118  -3.673  1.00  0.00    -0.051 C 
HETATM   58  C   LIG     1     -11.807 -19.224  -4.903  1.00  0.00    -0.040 C 
HETATM   59  H   LIG     1     -10.924 -19.631  -2.979  1.00  0.00     0.034 H 
HETATM   60  H   LIG     1     -12.580 -20.186  -3.146  1.00  0.00     0.034 H 
HETATM   61  C   LIG     1     -12.677 -19.874  -5.976  1.00  0.00     0.035 C 
HETATM   62  H   LIG     1     -10.831 -18.967  -5.328  1.00  0.00     0.036 H 
HETATM   63  H   LIG     1     -12.274 -18.287  -4.574  1.00  0.00     0.036 H 
HETATM   64  H   LIG     1     -12.677 -19.261  -6.883  1.00  0.00     0.082 H 
HETATM   65  C   LIG     1     -12.209 -21.285  -6.320  1.00  0.00    -0.040 C 
HETATM   66  C   LIG     1     -12.047 -22.170  -5.087  1.00  0.00    -0.051 C 
HETATM   67  H   LIG     1     -11.259 -21.236  -6.861  1.00  0.00     0.036 H 
HETATM   68  H   LIG     1     -12.940 -21.763  -6.985  1.00  0.00     0.036 H 
HETATM   69  H   LIG     1     -11.678 -23.148  -5.412  1.00  0.00     0.034 H 
HETATM   70  H   LIG     1     -13.034 -22.361  -4.648  1.00  0.00     0.034 H 
BRANCH  61  71
HETATM   71  O   LIG     1     -14.025 -19.949  -5.516  1.00  0.00    -0.396 OA
HETATM   72  H   LIG     1     -14.309 -19.040  -5.309  1.00  0.00     0.210 HD
ENDBRANCH  61  71
ENDBRANCH  52  55
ENDBRANCH  48  51
ENDBRANCH  45  48
ENDBRANCH   1  45
TORSDOF 11
ENDMDL
