MODEL 1
REMARK minimizedAffinity -8.61369324
REMARK minimizedRMSD -1
REMARK  11 active torsions:
REMARK  status: ('A' for Active; 'I' for Inactive)
REMARK    1  A    between atoms: N_1  and  S_2 
REMARK    2  A    between atoms: S_2  and  C_5 
REMARK    3  A    between atoms: C_8  and  C_9 
REMARK    4  A    between atoms: C_9  and  C_10 
REMARK    5  A    between atoms: C_14  and  N_15 
REMARK       I    between atoms: N_15  and  C_16 
REMARK       I    between atoms: C_16  and  N_18 
REMARK    6  A    between atoms: N_18  and  C_19 
REMARK    7  A    between atoms: C_21  and  C_22 
REMARK    8  A    between atoms: C_22  and  C_23 
REMARK    9  A    between atoms: C_23  and  N_24 
REMARK       I    between atoms: N_24  and  C_25 
REMARK   10  A    between atoms: C_25  and  C_27 
REMARK   11  A    between atoms: C_30  and  O_31 
ROOT
HETATM    1  C   LIG     1     -12.045 -25.988   0.742  1.00  0.00     0.051 C 
HETATM    2  C   LIG     1     -13.167 -26.122   1.465  1.00  0.00    -0.063 C 
HETATM    3  C   LIG     1     -14.547 -26.127   0.832  1.00  0.00     0.045 C 
HETATM    4  C   LIG     1     -14.502 -25.416  -0.526  1.00  0.00     0.250 C 
HETATM    5  O   LIG     1     -15.463 -24.751  -0.910  1.00  0.00    -0.271 OA
HETATM    6  N   LIG     1     -13.409 -25.642  -1.323  1.00  0.00    -0.224 NA
HETATM    7  C   LIG     1     -12.285 -25.888  -0.732  1.00  0.00     0.031 C 
HETATM    8  H   LIG     1     -13.133 -26.231   2.544  1.00  0.00     0.081 H 
HETATM    9  H   LIG     1     -15.208 -25.531   1.475  1.00  0.00     0.061 H 
HETATM   10  H   LIG     1     -11.436 -26.086  -1.396  1.00  0.00     0.118 H 
ENDROOT
BRANCH   1  11
HETATM   11  N   LIG     1     -10.791 -26.008   1.320  1.00  0.00    -0.308 N 
HETATM   12  C   LIG     1      -9.791 -25.069   1.115  1.00  0.00     0.325 C 
HETATM   13  N   LIG     1      -8.638 -25.333   1.841  1.00  0.00    -0.309 N 
HETATM   14  O   LIG     1      -9.935 -24.103   0.378  1.00  0.00    -0.247 OA
HETATM   15  H   LIG     1      -8.738 -25.906   2.668  1.00  0.00     0.170 HD
HETATM   16  H   LIG     1     -10.584 -26.776   1.941  1.00  0.00     0.170 HD
BRANCH  13  17
HETATM   17  C   LIG     1      -7.466 -24.530   1.753  1.00  0.00     0.036 A 
HETATM   18  C   LIG     1      -7.289 -23.391   2.544  1.00  0.00    -0.057 A 
HETATM   19  C   LIG     1      -6.076 -22.717   2.564  1.00  0.00    -0.080 A 
HETATM   20  H   LIG     1      -8.077 -23.011   3.186  1.00  0.00     0.086 H 
HETATM   21  C   LIG     1      -5.030 -23.144   1.754  1.00  0.00    -0.076 A 
HETATM   22  H   LIG     1      -5.941 -21.874   3.237  1.00  0.00     0.083 H 
HETATM   23  C   LIG     1      -5.198 -24.220   0.870  1.00  0.00    -0.052 A 
HETATM   24  H   LIG     1      -4.083 -22.619   1.837  1.00  0.00     0.084 H 
HETATM   25  C   LIG     1      -6.432 -24.909   0.880  1.00  0.00    -0.051 A 
HETATM   26  H   LIG     1      -6.558 -25.775   0.234  1.00  0.00     0.087 H 
BRANCH  23  27
HETATM   27  C   LIG     1      -4.051 -24.721   0.011  1.00  0.00    -0.017 C 
HETATM   28  H   LIG     1      -4.244 -24.434  -1.031  1.00  0.00     0.047 H 
HETATM   29  H   LIG     1      -3.125 -24.209   0.302  1.00  0.00     0.047 H 
BRANCH  27  30
HETATM   30  C   LIG     1      -3.800 -26.221   0.082  1.00  0.00    -0.054 A 
HETATM   31  C   LIG     1      -3.482 -26.834   1.304  1.00  0.00    -0.075 A 
HETATM   32  C   LIG     1      -3.339 -28.222   1.402  1.00  0.00    -0.060 A 
HETATM   33  H   LIG     1      -3.355 -26.218   2.197  1.00  0.00     0.084 H 
HETATM   34  C   LIG     1      -3.529 -29.009   0.265  1.00  0.00     0.074 A 
HETATM   35  H   LIG     1      -3.081 -28.650   2.370  1.00  0.00     0.085 H 
HETATM   36  C   LIG     1      -3.823 -28.417  -0.971  1.00  0.00    -0.060 A 
HETATM   37  C   LIG     1      -3.957 -27.027  -1.057  1.00  0.00    -0.075 A 
HETATM   38  H   LIG     1      -3.949 -29.027  -1.863  1.00  0.00     0.085 H 
HETATM   39  H   LIG     1      -4.215 -26.578  -2.017  1.00  0.00     0.084 H 
BRANCH  34  40
HETATM   40  S   LIG     1      -3.395 -30.787   0.337  1.00  0.00     0.239 S 
HETATM   41  O   LIG     1      -2.024 -31.158   0.006  1.00  0.00    -0.206 OA
HETATM   42  O   LIG     1      -4.518 -31.323  -0.374  1.00  0.00    -0.206 OA
BRANCH  40  43
HETATM   43  N   LIG     1      -3.654 -31.080   1.990  1.00  0.00    -0.225 NA
HETATM   44  H   LIG     1      -2.861 -31.474   2.501  1.00  0.00     0.136 HD
HETATM   45  H   LIG     1      -4.115 -30.321   2.505  1.00  0.00     0.136 HD
ENDBRANCH  40  43
ENDBRANCH  34  40
ENDBRANCH  27  30
ENDBRANCH  23  27
ENDBRANCH  13  17
ENDBRANCH   1  11
BRANCH   3  46
HETATM   46  C   LIG     1     -15.088 -27.563   0.700  1.00  0.00    -0.036 C 
HETATM   47  H   LIG     1     -15.986 -27.657   1.324  1.00  0.00     0.037 H 
HETATM   48  H   LIG     1     -14.357 -28.276   1.107  1.00  0.00     0.037 H 
BRANCH  46  49
HETATM   49  C   LIG     1     -15.428 -27.973  -0.740  1.00  0.00    -0.004 C 
HETATM   50  H   LIG     1     -14.851 -27.377  -1.454  1.00  0.00     0.064 H 
HETATM   51  H   LIG     1     -16.493 -27.826  -0.944  1.00  0.00     0.064 H 
BRANCH  49  52
HETATM   52  N   LIG     1     -15.087 -29.367  -1.018  1.00  0.00    -0.361 N 
HETATM   53  C   LIG     1     -13.802 -29.810  -1.224  1.00  0.00     0.221 C 
HETATM   54  O   LIG     1     -12.835 -29.048  -1.219  1.00  0.00    -0.273 OA
HETATM   55  H   LIG     1     -15.838 -30.046  -0.927  1.00  0.00     0.162 HD
BRANCH  53  56
HETATM   56  C   LIG     1     -13.680 -31.315  -1.564  1.00  0.00     0.024 C 
HETATM   57  C   LIG     1     -14.812 -31.824  -2.472  1.00  0.00    -0.051 C 
HETATM   58  C   LIG     1     -14.681 -31.382  -3.935  1.00  0.00    -0.040 C 
HETATM   59  H   LIG     1     -15.789 -31.505  -2.087  1.00  0.00     0.034 H 
HETATM   60  H   LIG     1     -14.816 -32.921  -2.441  1.00  0.00     0.034 H 
HETATM   61  C   LIG     1     -13.288 -31.565  -4.536  1.00  0.00     0.035 C 
HETATM   62  H   LIG     1     -14.965 -30.326  -4.008  1.00  0.00     0.036 H 
HETATM   63  H   LIG     1     -15.411 -31.950  -4.531  1.00  0.00     0.036 H 
HETATM   64  C   LIG     1     -12.155 -31.155  -3.583  1.00  0.00    -0.040 C 
HETATM   65  H   LIG     1     -13.212 -30.958  -5.444  1.00  0.00     0.082 H 
HETATM   66  C   LIG     1     -12.336 -31.723  -2.178  1.00  0.00    -0.051 C 
HETATM   67  H   LIG     1     -12.109 -30.061  -3.524  1.00  0.00     0.036 H 
HETATM   68  H   LIG     1     -11.196 -31.503  -3.981  1.00  0.00     0.036 H 
HETATM   69  H   LIG     1     -11.494 -31.418  -1.550  1.00  0.00     0.034 H 
HETATM   70  H   LIG     1     -12.290 -32.819  -2.223  1.00  0.00     0.034 H 
HETATM   71  H   LIG     1     -13.785 -31.828  -0.599  1.00  0.00     0.054 H 
BRANCH  61  72
HETATM   72  O   LIG     1     -13.117 -32.916  -4.949  1.00  0.00    -0.396 OA
HETATM   73  H   LIG     1     -13.104 -33.490  -4.170  1.00  0.00     0.210 HD
ENDBRANCH  61  72
ENDBRANCH  53  56
ENDBRANCH  49  52
ENDBRANCH  46  49
ENDBRANCH   3  46
TORSDOF 11
ENDMDL
MODEL 2
REMARK minimizedAffinity -8.4164114
REMARK minimizedRMSD -1
REMARK  11 active torsions:
REMARK  status: ('A' for Active; 'I' for Inactive)
REMARK    1  A    between atoms: N_1  and  S_2 
REMARK    2  A    between atoms: S_2  and  C_5 
REMARK    3  A    between atoms: C_8  and  C_9 
REMARK    4  A    between atoms: C_9  and  C_10 
REMARK    5  A    between atoms: C_14  and  N_15 
REMARK       I    between atoms: N_15  and  C_16 
REMARK       I    between atoms: C_16  and  N_18 
REMARK    6  A    between atoms: N_18  and  C_19 
REMARK    7  A    between atoms: C_21  and  C_22 
REMARK    8  A    between atoms: C_22  and  C_23 
REMARK    9  A    between atoms: C_23  and  N_24 
REMARK       I    between atoms: N_24  and  C_25 
REMARK   10  A    between atoms: C_25  and  C_27 
REMARK   11  A    between atoms: C_30  and  O_31 
ROOT
HETATM    1  C   LIG     1     -13.334 -20.817  -0.599  1.00  0.00     0.051 C 
HETATM    2  C   LIG     1     -13.288 -20.428  -1.883  1.00  0.00    -0.063 C 
HETATM    3  C   LIG     1     -12.434 -19.263  -2.349  1.00  0.00     0.045 C 
HETATM    4  C   LIG     1     -12.150 -18.319  -1.174  1.00  0.00     0.250 C 
HETATM    5  O   LIG     1     -12.074 -17.105  -1.358  1.00  0.00    -0.271 OA
HETATM    6  N   LIG     1     -11.883 -18.888   0.045  1.00  0.00    -0.224 NA
HETATM    7  C   LIG     1     -12.442 -20.025   0.304  1.00  0.00     0.031 C 
HETATM    8  H   LIG     1     -13.867 -20.936  -2.648  1.00  0.00     0.081 H 
HETATM    9  H   LIG     1     -13.025 -18.688  -3.075  1.00  0.00     0.061 H 
HETATM   10  H   LIG     1     -12.192 -20.464   1.276  1.00  0.00     0.118 H 
ENDROOT
BRANCH   1  11
HETATM   11  N   LIG     1     -14.095 -21.892  -0.185  1.00  0.00    -0.308 N 
HETATM   12  C   LIG     1     -13.649 -23.200  -0.064  1.00  0.00     0.325 C 
HETATM   13  N   LIG     1     -14.629 -24.070   0.393  1.00  0.00    -0.309 N 
HETATM   14  O   LIG     1     -12.499 -23.531  -0.321  1.00  0.00    -0.247 OA
HETATM   15  H   LIG     1     -15.394 -23.666   0.914  1.00  0.00     0.170 HD
HETATM   16  H   LIG     1     -15.061 -21.710   0.045  1.00  0.00     0.170 HD
BRANCH  13  17
HETATM   17  C   LIG     1     -14.412 -25.468   0.549  1.00  0.00     0.036 A 
HETATM   18  C   LIG     1     -13.635 -25.983   1.591  1.00  0.00    -0.057 A 
HETATM   19  C   LIG     1     -13.568 -27.349   1.825  1.00  0.00    -0.080 A 
HETATM   20  H   LIG     1     -13.080 -25.338   2.267  1.00  0.00     0.086 H 
HETATM   21  C   LIG     1     -14.243 -28.231   0.989  1.00  0.00    -0.076 A 
HETATM   22  H   LIG     1     -13.012 -27.722   2.681  1.00  0.00     0.083 H 
HETATM   23  C   LIG     1     -14.951 -27.763  -0.129  1.00  0.00    -0.052 A 
HETATM   24  H   LIG     1     -14.206 -29.288   1.236  1.00  0.00     0.084 H 
HETATM   25  C   LIG     1     -15.026 -26.368  -0.338  1.00  0.00    -0.051 A 
HETATM   26  H   LIG     1     -15.613 -25.990  -1.173  1.00  0.00     0.087 H 
BRANCH  23  27
HETATM   27  C   LIG     1     -15.726 -28.713  -1.025  1.00  0.00    -0.017 C 
HETATM   28  H   LIG     1     -16.279 -29.417  -0.391  1.00  0.00     0.047 H 
HETATM   29  H   LIG     1     -16.481 -28.150  -1.589  1.00  0.00     0.047 H 
BRANCH  27  30
HETATM   30  C   LIG     1     -14.879 -29.491  -2.023  1.00  0.00    -0.054 A 
HETATM   31  C   LIG     1     -13.881 -28.844  -2.769  1.00  0.00    -0.075 A 
HETATM   32  C   LIG     1     -13.035 -29.563  -3.620  1.00  0.00    -0.060 A 
HETATM   33  H   LIG     1     -13.754 -27.764  -2.674  1.00  0.00     0.084 H 
HETATM   34  C   LIG     1     -13.181 -30.948  -3.719  1.00  0.00     0.074 A 
HETATM   35  H   LIG     1     -12.282 -29.015  -4.187  1.00  0.00     0.085 H 
HETATM   36  C   LIG     1     -14.187 -31.611  -3.003  1.00  0.00    -0.060 A 
HETATM   37  C   LIG     1     -15.031 -30.881  -2.158  1.00  0.00    -0.075 A 
HETATM   38  H   LIG     1     -14.317 -32.686  -3.096  1.00  0.00     0.085 H 
HETATM   39  H   LIG     1     -15.791 -31.409  -1.583  1.00  0.00     0.084 H 
BRANCH  34  40
HETATM   40  S   LIG     1     -12.109 -31.920  -4.762  1.00  0.00     0.239 S 
HETATM   41  O   LIG     1     -11.256 -32.739  -3.908  1.00  0.00    -0.206 OA
HETATM   42  O   LIG     1     -11.566 -31.034  -5.749  1.00  0.00    -0.206 OA
BRANCH  40  43
HETATM   43  N   LIG     1     -13.225 -32.932  -5.548  1.00  0.00    -0.225 NA
HETATM   44  H   LIG     1     -13.142 -33.929  -5.340  1.00  0.00     0.136 HD
HETATM   45  H   LIG     1     -14.199 -32.608  -5.534  1.00  0.00     0.136 HD
ENDBRANCH  40  43
ENDBRANCH  34  40
ENDBRANCH  27  30
ENDBRANCH  23  27
ENDBRANCH  13  17
ENDBRANCH   1  11
BRANCH   3  46
HETATM   46  C   LIG     1     -11.130 -19.760  -3.001  1.00  0.00    -0.036 C 
HETATM   47  H   LIG     1     -10.774 -20.637  -2.445  1.00  0.00     0.037 H 
HETATM   48  H   LIG     1     -10.347 -18.996  -2.899  1.00  0.00     0.037 H 
BRANCH  46  49
HETATM   49  C   LIG     1     -11.272 -20.125  -4.486  1.00  0.00    -0.004 C 
HETATM   50  H   LIG     1     -10.597 -19.516  -5.094  1.00  0.00     0.064 H 
HETATM   51  H   LIG     1     -12.298 -19.957  -4.830  1.00  0.00     0.064 H 
BRANCH  49  52
HETATM   52  N   LIG     1     -10.910 -21.514  -4.756  1.00  0.00    -0.361 N 
HETATM   53  C   LIG     1     -11.821 -22.541  -4.811  1.00  0.00     0.221 C 
HETATM   54  O   LIG     1     -13.021 -22.367  -4.604  1.00  0.00    -0.273 OA
HETATM   55  H   LIG     1      -9.948 -21.687  -5.038  1.00  0.00     0.162 HD
BRANCH  53  56
HETATM   56  C   LIG     1     -11.207 -23.942  -5.049  1.00  0.00     0.024 C 
HETATM   57  C   LIG     1      -9.966 -24.215  -4.182  1.00  0.00    -0.051 C 
HETATM   58  C   LIG     1     -10.287 -24.498  -2.710  1.00  0.00    -0.040 C 
HETATM   59  H   LIG     1      -9.262 -23.375  -4.242  1.00  0.00     0.034 H 
HETATM   60  H   LIG     1      -9.439 -25.084  -4.595  1.00  0.00     0.034 H 
HETATM   61  C   LIG     1     -11.421 -25.497  -2.483  1.00  0.00     0.035 C 
HETATM   62  H   LIG     1     -10.543 -23.552  -2.219  1.00  0.00     0.036 H 
HETATM   63  H   LIG     1      -9.373 -24.871  -2.226  1.00  0.00     0.036 H 
HETATM   64  C   LIG     1     -12.616 -25.287  -3.426  1.00  0.00    -0.040 C 
HETATM   65  H   LIG     1     -11.775 -25.403  -1.451  1.00  0.00     0.082 H 
HETATM   66  C   LIG     1     -12.191 -25.106  -4.881  1.00  0.00    -0.051 C 
HETATM   67  H   LIG     1     -13.179 -24.402  -3.105  1.00  0.00     0.036 H 
HETATM   68  H   LIG     1     -13.290 -26.147  -3.362  1.00  0.00     0.036 H 
HETATM   69  H   LIG     1     -13.078 -24.981  -5.507  1.00  0.00     0.034 H 
HETATM   70  H   LIG     1     -11.707 -26.028  -5.232  1.00  0.00     0.034 H 
HETATM   71  H   LIG     1     -10.873 -23.926  -6.096  1.00  0.00     0.054 H 
BRANCH  61  72
HETATM   72  O   LIG     1     -10.924 -26.825  -2.609  1.00  0.00    -0.396 OA
HETATM   73  H   LIG     1     -10.664 -26.983  -3.528  1.00  0.00     0.210 HD
ENDBRANCH  61  72
ENDBRANCH  53  56
ENDBRANCH  49  52
ENDBRANCH  46  49
ENDBRANCH   3  46
TORSDOF 11
ENDMDL
MODEL 3
REMARK minimizedAffinity -8.32938671
REMARK minimizedRMSD -1
REMARK  11 active torsions:
REMARK  status: ('A' for Active; 'I' for Inactive)
REMARK    1  A    between atoms: N_1  and  S_2 
REMARK    2  A    between atoms: S_2  and  C_5 
REMARK    3  A    between atoms: C_8  and  C_9 
REMARK    4  A    between atoms: C_9  and  C_10 
REMARK    5  A    between atoms: C_14  and  N_15 
REMARK       I    between atoms: N_15  and  C_16 
REMARK       I    between atoms: C_16  and  N_18 
REMARK    6  A    between atoms: N_18  and  C_19 
REMARK    7  A    between atoms: C_21  and  C_22 
REMARK    8  A    between atoms: C_22  and  C_23 
REMARK    9  A    between atoms: C_23  and  N_24 
REMARK       I    between atoms: N_24  and  C_25 
REMARK   10  A    between atoms: C_25  and  C_27 
REMARK   11  A    between atoms: C_30  and  O_31 
ROOT
HETATM    1  C   LIG     1     -13.584 -31.938  -3.627  1.00  0.00     0.051 C 
HETATM    2  C   LIG     1     -12.644 -31.279  -2.931  1.00  0.00    -0.063 C 
HETATM    3  C   LIG     1     -12.980 -30.408  -1.734  1.00  0.00     0.045 C 
HETATM    4  C   LIG     1     -14.442 -29.951  -1.813  1.00  0.00     0.250 C 
HETATM    5  O   LIG     1     -14.766 -28.836  -1.407  1.00  0.00    -0.271 OA
HETATM    6  N   LIG     1     -15.369 -30.865  -2.245  1.00  0.00    -0.224 NA
HETATM    7  C   LIG     1     -14.969 -31.762  -3.087  1.00  0.00     0.031 C 
HETATM    8  H   LIG     1     -11.595 -31.343  -3.200  1.00  0.00     0.081 H 
HETATM    9  H   LIG     1     -12.366 -29.500  -1.802  1.00  0.00     0.061 H 
HETATM   10  H   LIG     1     -15.726 -32.491  -3.397  1.00  0.00     0.118 H 
ENDROOT
BRANCH   1  11
HETATM   11  N   LIG     1     -13.271 -32.747  -4.701  1.00  0.00    -0.308 N 
HETATM   12  C   LIG     1     -12.367 -32.442  -5.708  1.00  0.00     0.325 C 
HETATM   13  N   LIG     1     -12.240 -33.452  -6.651  1.00  0.00    -0.309 N 
HETATM   14  O   LIG     1     -11.743 -31.390  -5.736  1.00  0.00    -0.247 OA
HETATM   15  H   LIG     1     -12.492 -34.386  -6.360  1.00  0.00     0.170 HD
HETATM   16  H   LIG     1     -13.746 -33.636  -4.760  1.00  0.00     0.170 HD
BRANCH  13  17
HETATM   17  C   LIG     1     -11.405 -33.340  -7.799  1.00  0.00     0.036 A 
HETATM   18  C   LIG     1     -11.916 -32.992  -9.052  1.00  0.00    -0.057 A 
HETATM   19  C   LIG     1     -11.070 -32.728 -10.120  1.00  0.00    -0.080 A 
HETATM   20  H   LIG     1     -12.982 -32.891  -9.230  1.00  0.00     0.086 H 
HETATM   21  C   LIG     1      -9.694 -32.853  -9.964  1.00  0.00    -0.076 A 
HETATM   22  H   LIG     1     -11.487 -32.394 -11.067  1.00  0.00     0.083 H 
HETATM   23  C   LIG     1      -9.145 -33.298  -8.752  1.00  0.00    -0.052 A 
HETATM   24  H   LIG     1      -9.066 -32.588 -10.809  1.00  0.00     0.084 H 
HETATM   25  C   LIG     1     -10.020 -33.540  -7.670  1.00  0.00    -0.051 A 
HETATM   26  H   LIG     1      -9.603 -33.839  -6.710  1.00  0.00     0.087 H 
BRANCH  23  27
HETATM   27  C   LIG     1      -7.643 -33.399  -8.557  1.00  0.00    -0.017 C 
HETATM   28  H   LIG     1      -7.147 -32.950  -9.428  1.00  0.00     0.047 H 
HETATM   29  H   LIG     1      -7.345 -32.795  -7.690  1.00  0.00     0.047 H 
BRANCH  27  30
HETATM   30  C   LIG     1      -7.113 -34.811  -8.350  1.00  0.00    -0.054 A 
HETATM   31  C   LIG     1      -6.819 -35.630  -9.452  1.00  0.00    -0.075 A 
HETATM   32  C   LIG     1      -6.246 -36.895  -9.280  1.00  0.00    -0.060 A 
HETATM   33  H   LIG     1      -7.029 -35.270 -10.461  1.00  0.00     0.084 H 
HETATM   34  C   LIG     1      -5.953 -37.342  -7.991  1.00  0.00     0.074 A 
HETATM   35  H   LIG     1      -6.045 -37.498 -10.165  1.00  0.00     0.085 H 
HETATM   36  C   LIG     1      -6.261 -36.552  -6.875  1.00  0.00    -0.060 A 
HETATM   37  C   LIG     1      -6.839 -35.291  -7.060  1.00  0.00    -0.075 A 
HETATM   38  H   LIG     1      -6.054 -36.907  -5.869  1.00  0.00     0.085 H 
HETATM   39  H   LIG     1      -7.049 -34.671  -6.187  1.00  0.00     0.084 H 
BRANCH  34  40
HETATM   40  S   LIG     1      -5.189 -38.931  -7.713  1.00  0.00     0.239 S 
HETATM   41  O   LIG     1      -4.753 -38.994  -6.323  1.00  0.00    -0.206 OA
HETATM   42  O   LIG     1      -4.287 -39.160  -8.802  1.00  0.00    -0.206 OA
BRANCH  40  43
HETATM   43  N   LIG     1      -6.509 -39.982  -7.917  1.00  0.00    -0.225 NA
HETATM   44  H   LIG     1      -6.794 -40.503  -7.085  1.00  0.00     0.136 HD
HETATM   45  H   LIG     1      -7.309 -39.590  -8.428  1.00  0.00     0.136 HD
ENDBRANCH  40  43
ENDBRANCH  34  40
ENDBRANCH  27  30
ENDBRANCH  23  27
ENDBRANCH  13  17
ENDBRANCH   1  11
BRANCH   3  46
HETATM   46  C   LIG     1     -12.690 -31.148  -0.415  1.00  0.00    -0.036 C 
HETATM   47  H   LIG     1     -12.623 -32.223  -0.625  1.00  0.00     0.037 H 
HETATM   48  H   LIG     1     -13.536 -31.024   0.276  1.00  0.00     0.037 H 
BRANCH  46  49
HETATM   49  C   LIG     1     -11.406 -30.689   0.292  1.00  0.00    -0.004 C 
HETATM   50  H   LIG     1     -11.378 -31.069   1.317  1.00  0.00     0.064 H 
HETATM   51  H   LIG     1     -11.351 -29.596   0.323  1.00  0.00     0.064 H 
BRANCH  49  52
HETATM   52  N   LIG     1     -10.200 -31.200  -0.356  1.00  0.00    -0.361 N 
HETATM   53  C   LIG     1     -10.005 -32.526  -0.663  1.00  0.00     0.221 C 
HETATM   54  O   LIG     1     -10.831 -33.394  -0.384  1.00  0.00    -0.273 OA
HETATM   55  H   LIG     1      -9.540 -30.508  -0.701  1.00  0.00     0.162 HD
BRANCH  53  56
HETATM   56  C   LIG     1      -8.628 -32.851  -1.290  1.00  0.00     0.024 C 
HETATM   57  C   LIG     1      -8.668 -34.058  -2.244  1.00  0.00    -0.051 C 
HETATM   58  C   LIG     1      -9.324 -33.759  -3.597  1.00  0.00    -0.040 C 
HETATM   59  H   LIG     1      -9.184 -34.904  -1.773  1.00  0.00     0.034 H 
HETATM   60  H   LIG     1      -7.638 -34.392  -2.424  1.00  0.00     0.034 H 
HETATM   61  C   LIG     1      -8.852 -32.469  -4.266  1.00  0.00     0.035 C 
HETATM   62  H   LIG     1     -10.410 -33.710  -3.456  1.00  0.00     0.036 H 
HETATM   63  H   LIG     1      -9.127 -34.608  -4.267  1.00  0.00     0.036 H 
HETATM   64  C   LIG     1      -8.710 -31.292  -3.288  1.00  0.00    -0.040 C 
HETATM   65  H   LIG     1      -9.571 -32.188  -5.042  1.00  0.00     0.082 H 
HETATM   66  C   LIG     1      -7.962 -31.675  -2.014  1.00  0.00    -0.051 C 
HETATM   67  H   LIG     1      -9.707 -30.922  -3.020  1.00  0.00     0.036 H 
HETATM   68  H   LIG     1      -8.174 -30.472  -3.775  1.00  0.00     0.036 H 
HETATM   69  H   LIG     1      -7.873 -30.798  -1.366  1.00  0.00     0.034 H 
HETATM   70  H   LIG     1      -6.933 -31.959  -2.271  1.00  0.00     0.034 H 
HETATM   71  H   LIG     1      -7.993 -33.132  -0.439  1.00  0.00     0.054 H 
BRANCH  61  72
HETATM   72  O   LIG     1      -7.618 -32.700  -4.937  1.00  0.00    -0.396 OA
HETATM   73  H   LIG     1      -6.927 -32.881  -4.284  1.00  0.00     0.210 HD
ENDBRANCH  61  72
ENDBRANCH  53  56
ENDBRANCH  49  52
ENDBRANCH  46  49
ENDBRANCH   3  46
TORSDOF 11
ENDMDL
MODEL 4
REMARK minimizedAffinity -8.04871082
REMARK minimizedRMSD -1
REMARK  11 active torsions:
REMARK  status: ('A' for Active; 'I' for Inactive)
REMARK    1  A    between atoms: N_1  and  S_2 
REMARK    2  A    between atoms: S_2  and  C_5 
REMARK    3  A    between atoms: C_8  and  C_9 
REMARK    4  A    between atoms: C_9  and  C_10 
REMARK    5  A    between atoms: C_14  and  N_15 
REMARK       I    between atoms: N_15  and  C_16 
REMARK       I    between atoms: C_16  and  N_18 
REMARK    6  A    between atoms: N_18  and  C_19 
REMARK    7  A    between atoms: C_21  and  C_22 
REMARK    8  A    between atoms: C_22  and  C_23 
REMARK    9  A    between atoms: C_23  and  N_24 
REMARK       I    between atoms: N_24  and  C_25 
REMARK   10  A    between atoms: C_25  and  C_27 
REMARK   11  A    between atoms: C_30  and  O_31 
ROOT
HETATM    1  C   LIG     1     -10.930 -32.066  -0.802  1.00  0.00     0.051 C 
HETATM    2  C   LIG     1     -11.543 -31.849  -1.977  1.00  0.00    -0.063 C 
HETATM    3  C   LIG     1     -12.599 -30.774  -2.157  1.00  0.00     0.045 C 
HETATM    4  C   LIG     1     -13.232 -30.430  -0.803  1.00  0.00     0.250 C 
HETATM    5  O   LIG     1     -14.423 -30.132  -0.733  1.00  0.00    -0.271 OA
HETATM    6  N   LIG     1     -12.400 -30.363   0.286  1.00  0.00    -0.224 NA
HETATM    7  C   LIG     1     -11.357 -31.127   0.282  1.00  0.00     0.031 C 
HETATM    8  H   LIG     1     -11.306 -32.443  -2.854  1.00  0.00     0.081 H 
HETATM    9  H   LIG     1     -13.400 -31.198  -2.777  1.00  0.00     0.061 H 
HETATM   10  H   LIG     1     -10.701 -31.035   1.156  1.00  0.00     0.118 H 
ENDROOT
BRANCH   1  11
HETATM   11  N   LIG     1      -9.953 -33.030  -0.650  1.00  0.00    -0.308 N 
HETATM   12  C   LIG     1      -8.599 -32.855  -0.893  1.00  0.00     0.325 C 
HETATM   13  N   LIG     1      -7.848 -33.993  -0.638  1.00  0.00    -0.309 N 
HETATM   14  O   LIG     1      -8.130 -31.792  -1.278  1.00  0.00    -0.247 OA
HETATM   15  H   LIG     1      -8.241 -34.668   0.003  1.00  0.00     0.170 HD
HETATM   16  H   LIG     1     -10.253 -33.942  -0.339  1.00  0.00     0.170 HD
BRANCH  13  17
HETATM   17  C   LIG     1      -6.443 -34.062  -0.861  1.00  0.00     0.036 A 
HETATM   18  C   LIG     1      -5.907 -34.606  -2.031  1.00  0.00    -0.057 A 
HETATM   19  C   LIG     1      -4.550 -34.516  -2.304  1.00  0.00    -0.080 A 
HETATM   20  H   LIG     1      -6.530 -35.092  -2.776  1.00  0.00     0.086 H 
HETATM   21  C   LIG     1      -3.695 -33.918  -1.386  1.00  0.00    -0.076 A 
HETATM   22  H   LIG     1      -4.166 -34.887  -3.251  1.00  0.00     0.083 H 
HETATM   23  C   LIG     1      -4.175 -33.451  -0.154  1.00  0.00    -0.052 A 
HETATM   24  H   LIG     1      -2.648 -33.824  -1.660  1.00  0.00     0.084 H 
HETATM   25  C   LIG     1      -5.563 -33.530   0.098  1.00  0.00    -0.051 A 
HETATM   26  H   LIG     1      -5.955 -33.127   1.029  1.00  0.00     0.087 H 
BRANCH  23  27
HETATM   27  C   LIG     1      -3.258 -32.760   0.840  1.00  0.00    -0.017 C 
HETATM   28  H   LIG     1      -3.451 -33.174   1.838  1.00  0.00     0.047 H 
HETATM   29  H   LIG     1      -2.214 -33.003   0.604  1.00  0.00     0.047 H 
BRANCH  27  30
HETATM   30  C   LIG     1      -3.388 -31.244   0.891  1.00  0.00    -0.054 A 
HETATM   31  C   LIG     1      -3.136 -30.547   2.084  1.00  0.00    -0.075 A 
HETATM   32  C   LIG     1      -3.162 -29.149   2.123  1.00  0.00    -0.060 A 
HETATM   33  H   LIG     1      -2.905 -31.105   2.994  1.00  0.00     0.084 H 
HETATM   34  C   LIG     1      -3.432 -28.438   0.953  1.00  0.00     0.074 A 
HETATM   35  H   LIG     1      -2.970 -28.654   3.075  1.00  0.00     0.085 H 
HETATM   36  C   LIG     1      -3.711 -29.113  -0.243  1.00  0.00    -0.060 A 
HETATM   37  C   LIG     1      -3.687 -30.512  -0.269  1.00  0.00    -0.075 A 
HETATM   38  H   LIG     1      -3.943 -28.561  -1.151  1.00  0.00     0.085 H 
HETATM   39  H   LIG     1      -3.877 -31.028  -1.210  1.00  0.00     0.084 H 
BRANCH  34  40
HETATM   40  S   LIG     1      -3.443 -26.653   0.936  1.00  0.00     0.239 S 
HETATM   41  O   LIG     1      -2.448 -26.179   1.891  1.00  0.00    -0.206 OA
HETATM   42  O   LIG     1      -4.813 -26.241   1.000  1.00  0.00    -0.206 OA
BRANCH  40  43
HETATM   43  N   LIG     1      -2.887 -26.326  -0.637  1.00  0.00    -0.225 NA
HETATM   44  H   LIG     1      -1.986 -25.849  -0.698  1.00  0.00     0.136 HD
HETATM   45  H   LIG     1      -2.966 -27.104  -1.303  1.00  0.00     0.136 HD
ENDBRANCH  40  43
ENDBRANCH  34  40
ENDBRANCH  27  30
ENDBRANCH  23  27
ENDBRANCH  13  17
ENDBRANCH   1  11
BRANCH   3  46
HETATM   46  C   LIG     1     -12.005 -29.526  -2.836  1.00  0.00    -0.036 C 
HETATM   47  H   LIG     1     -11.157 -29.837  -3.460  1.00  0.00     0.037 H 
HETATM   48  H   LIG     1     -11.592 -28.848  -2.076  1.00  0.00     0.037 H 
BRANCH  46  49
HETATM   49  C   LIG     1     -13.008 -28.746  -3.698  1.00  0.00    -0.004 C 
HETATM   50  H   LIG     1     -13.441 -29.397  -4.463  1.00  0.00     0.064 H 
HETATM   51  H   LIG     1     -12.518 -27.903  -4.196  1.00  0.00     0.064 H 
BRANCH  49  52
HETATM   52  N   LIG     1     -14.136 -28.238  -2.921  1.00  0.00    -0.361 N 
HETATM   53  C   LIG     1     -14.556 -26.930  -2.953  1.00  0.00     0.221 C 
HETATM   54  O   LIG     1     -13.985 -26.073  -3.627  1.00  0.00    -0.273 OA
HETATM   55  H   LIG     1     -14.702 -28.930  -2.435  1.00  0.00     0.162 HD
BRANCH  53  56
HETATM   56  C   LIG     1     -15.732 -26.601  -2.003  1.00  0.00     0.024 C 
HETATM   57  C   LIG     1     -15.570 -27.220  -0.603  1.00  0.00    -0.051 C 
HETATM   58  C   LIG     1     -14.533 -26.509   0.274  1.00  0.00    -0.040 C 
HETATM   59  H   LIG     1     -15.309 -28.283  -0.680  1.00  0.00     0.034 H 
HETATM   60  H   LIG     1     -16.541 -27.181  -0.092  1.00  0.00     0.034 H 
HETATM   61  C   LIG     1     -14.645 -24.985   0.291  1.00  0.00     0.035 C 
HETATM   62  H   LIG     1     -13.531 -26.789  -0.072  1.00  0.00     0.036 H 
HETATM   63  H   LIG     1     -14.633 -26.892   1.300  1.00  0.00     0.036 H 
HETATM   64  C   LIG     1     -14.914 -24.379  -1.095  1.00  0.00    -0.040 C 
HETATM   65  H   LIG     1     -13.710 -24.566   0.676  1.00  0.00     0.082 H 
HETATM   66  C   LIG     1     -16.027 -25.105  -1.847  1.00  0.00    -0.051 C 
HETATM   67  H   LIG     1     -13.995 -24.418  -1.692  1.00  0.00     0.036 H 
HETATM   68  H   LIG     1     -15.193 -23.326  -0.988  1.00  0.00     0.036 H 
HETATM   69  H   LIG     1     -16.189 -24.621  -2.814  1.00  0.00     0.034 H 
HETATM   70  H   LIG     1     -16.970 -24.988  -1.295  1.00  0.00     0.034 H 
HETATM   71  H   LIG     1     -16.608 -27.075  -2.466  1.00  0.00     0.054 H 
BRANCH  61  72
HETATM   72  O   LIG     1     -15.661 -24.589   1.205  1.00  0.00    -0.396 OA
HETATM   73  H   LIG     1     -16.523 -24.875   0.870  1.00  0.00     0.210 HD
ENDBRANCH  61  72
ENDBRANCH  53  56
ENDBRANCH  49  52
ENDBRANCH  46  49
ENDBRANCH   3  46
TORSDOF 11
ENDMDL
MODEL 5
REMARK minimizedAffinity -7.10042477
REMARK minimizedRMSD -1
REMARK  11 active torsions:
REMARK  status: ('A' for Active; 'I' for Inactive)
REMARK    1  A    between atoms: N_1  and  S_2 
REMARK    2  A    between atoms: S_2  and  C_5 
REMARK    3  A    between atoms: C_8  and  C_9 
REMARK    4  A    between atoms: C_9  and  C_10 
REMARK    5  A    between atoms: C_14  and  N_15 
REMARK       I    between atoms: N_15  and  C_16 
REMARK       I    between atoms: C_16  and  N_18 
REMARK    6  A    between atoms: N_18  and  C_19 
REMARK    7  A    between atoms: C_21  and  C_22 
REMARK    8  A    between atoms: C_22  and  C_23 
REMARK    9  A    between atoms: C_23  and  N_24 
REMARK       I    between atoms: N_24  and  C_25 
REMARK   10  A    between atoms: C_25  and  C_27 
REMARK   11  A    between atoms: C_30  and  O_31 
ROOT
HETATM    1  C   LIG     1     -11.013 -32.132  -0.926  1.00  0.00     0.051 C 
HETATM    2  C   LIG     1     -11.485 -31.831  -2.146  1.00  0.00    -0.063 C 
HETATM    3  C   LIG     1     -12.567 -30.789  -2.365  1.00  0.00     0.045 C 
HETATM    4  C   LIG     1     -13.381 -30.602  -1.079  1.00  0.00     0.250 C 
HETATM    5  O   LIG     1     -14.587 -30.363  -1.138  1.00  0.00    -0.271 OA
HETATM    6  N   LIG     1     -12.697 -30.603   0.110  1.00  0.00    -0.224 NA
HETATM    7  C   LIG     1     -11.622 -31.319   0.173  1.00  0.00     0.031 C 
HETATM    8  H   LIG     1     -11.109 -32.328  -3.035  1.00  0.00     0.081 H 
HETATM    9  H   LIG     1     -13.261 -31.185  -3.119  1.00  0.00     0.061 H 
HETATM   10  H   LIG     1     -11.086 -31.283   1.128  1.00  0.00     0.118 H 
ENDROOT
BRANCH   1  11
HETATM   11  N   LIG     1     -10.012 -33.064  -0.735  1.00  0.00    -0.308 N 
HETATM   12  C   LIG     1      -8.653 -32.837  -0.898  1.00  0.00     0.325 C 
HETATM   13  N   LIG     1      -7.877 -33.953  -0.620  1.00  0.00    -0.309 N 
HETATM   14  O   LIG     1      -8.203 -31.751  -1.238  1.00  0.00    -0.247 OA
HETATM   15  H   LIG     1      -8.281 -34.653  -0.013  1.00  0.00     0.170 HD
HETATM   16  H   LIG     1     -10.296 -33.991  -0.457  1.00  0.00     0.170 HD
BRANCH  13  17
HETATM   17  C   LIG     1      -6.461 -33.968  -0.764  1.00  0.00     0.036 A 
HETATM   18  C   LIG     1      -5.610 -33.555   0.264  1.00  0.00    -0.057 A 
HETATM   19  C   LIG     1      -4.236 -33.730   0.168  1.00  0.00    -0.080 A 
HETATM   20  H   LIG     1      -5.988 -33.111   1.180  1.00  0.00     0.086 H 
HETATM   21  C   LIG     1      -3.685 -34.280  -0.983  1.00  0.00    -0.076 A 
HETATM   22  H   LIG     1      -3.600 -33.463   1.008  1.00  0.00     0.083 H 
HETATM   23  C   LIG     1      -4.494 -34.613  -2.080  1.00  0.00    -0.052 A 
HETATM   24  H   LIG     1      -2.612 -34.445  -0.998  1.00  0.00     0.084 H 
HETATM   25  C   LIG     1      -5.892 -34.449  -1.955  1.00  0.00    -0.051 A 
HETATM   26  H   LIG     1      -6.534 -34.750  -2.780  1.00  0.00     0.087 H 
BRANCH  23  27
HETATM   27  C   LIG     1      -3.908 -35.252  -3.326  1.00  0.00    -0.017 C 
HETATM   28  H   LIG     1      -4.105 -34.592  -4.181  1.00  0.00     0.047 H 
HETATM   29  H   LIG     1      -2.816 -35.310  -3.230  1.00  0.00     0.047 H 
BRANCH  27  30
HETATM   30  C   LIG     1      -4.427 -36.648  -3.640  1.00  0.00    -0.054 A 
HETATM   31  C   LIG     1      -3.988 -37.756  -2.896  1.00  0.00    -0.075 A 
HETATM   32  C   LIG     1      -4.524 -39.030  -3.112  1.00  0.00    -0.060 A 
HETATM   33  H   LIG     1      -3.223 -37.618  -2.129  1.00  0.00     0.084 H 
HETATM   34  C   LIG     1      -5.521 -39.198  -4.074  1.00  0.00     0.074 A 
HETATM   35  H   LIG     1      -4.143 -39.860  -2.517  1.00  0.00     0.085 H 
HETATM   36  C   LIG     1      -5.957 -38.111  -4.845  1.00  0.00    -0.060 A 
HETATM   37  C   LIG     1      -5.409 -36.842  -4.625  1.00  0.00    -0.075 A 
HETATM   38  H   LIG     1      -6.717 -38.244  -5.611  1.00  0.00     0.085 H 
HETATM   39  H   LIG     1      -5.776 -35.998  -5.209  1.00  0.00     0.084 H 
BRANCH  34  40
HETATM   40  S   LIG     1      -6.266 -40.792  -4.367  1.00  0.00     0.239 S 
HETATM   41  O   LIG     1      -6.519 -41.425  -3.077  1.00  0.00    -0.206 OA
HETATM   42  O   LIG     1      -5.495 -41.436  -5.389  1.00  0.00    -0.206 OA
BRANCH  40  43
HETATM   43  N   LIG     1      -7.754 -40.349  -5.057  1.00  0.00    -0.225 NA
HETATM   44  H   LIG     1      -8.585 -40.589  -4.512  1.00  0.00     0.136 HD
HETATM   45  H   LIG     1      -7.797 -39.397  -5.439  1.00  0.00     0.136 HD
ENDBRANCH  40  43
ENDBRANCH  34  40
ENDBRANCH  27  30
ENDBRANCH  23  27
ENDBRANCH  13  17
ENDBRANCH   1  11
BRANCH   3  46
HETATM   46  C   LIG     1     -11.962 -29.458  -2.848  1.00  0.00    -0.036 C 
HETATM   47  H   LIG     1     -11.073 -29.678  -3.454  1.00  0.00     0.037 H 
HETATM   48  H   LIG     1     -11.607 -28.875  -1.987  1.00  0.00     0.037 H 
BRANCH  46  49
HETATM   49  C   LIG     1     -12.929 -28.591  -3.666  1.00  0.00    -0.004 C 
HETATM   50  H   LIG     1     -13.354 -29.167  -4.493  1.00  0.00     0.064 H 
HETATM   51  H   LIG     1     -12.413 -27.718  -4.080  1.00  0.00     0.064 H 
BRANCH  49  52
HETATM   52  N   LIG     1     -14.068 -28.129  -2.876  1.00  0.00    -0.361 N 
HETATM   53  C   LIG     1     -14.635 -26.885  -3.013  1.00  0.00     0.221 C 
HETATM   54  O   LIG     1     -14.200 -26.047  -3.803  1.00  0.00    -0.273 OA
HETATM   55  H   LIG     1     -14.527 -28.822  -2.290  1.00  0.00     0.162 HD
BRANCH  53  56
HETATM   56  C   LIG     1     -15.793 -26.586  -2.030  1.00  0.00     0.024 C 
HETATM   57  C   LIG     1     -15.599 -27.238  -0.651  1.00  0.00    -0.051 C 
HETATM   58  C   LIG     1     -14.547 -26.544   0.222  1.00  0.00    -0.040 C 
HETATM   59  H   LIG     1     -15.333 -28.297  -0.759  1.00  0.00     0.034 H 
HETATM   60  H   LIG     1     -16.559 -27.218  -0.119  1.00  0.00     0.034 H 
HETATM   61  C   LIG     1     -14.666 -25.022   0.279  1.00  0.00     0.035 C 
HETATM   62  H   LIG     1     -13.551 -26.809  -0.152  1.00  0.00     0.036 H 
HETATM   63  H   LIG     1     -14.624 -26.952   1.241  1.00  0.00     0.036 H 
HETATM   64  C   LIG     1     -14.967 -24.382  -1.085  1.00  0.00    -0.040 C 
HETATM   65  H   LIG     1     -13.726 -24.606   0.655  1.00  0.00     0.082 H 
HETATM   66  C   LIG     1     -16.092 -25.095  -1.831  1.00  0.00    -0.051 C 
HETATM   67  H   LIG     1     -14.060 -24.402  -1.702  1.00  0.00     0.036 H 
HETATM   68  H   LIG     1     -15.249 -23.334  -0.946  1.00  0.00     0.036 H 
HETATM   69  H   LIG     1     -16.277 -24.588  -2.782  1.00  0.00     0.034 H 
HETATM   70  H   LIG     1     -17.023 -24.998  -1.257  1.00  0.00     0.034 H 
HETATM   71  H   LIG     1     -16.676 -27.053  -2.487  1.00  0.00     0.054 H 
BRANCH  61  72
HETATM   72  O   LIG     1     -15.665 -24.653   1.224  1.00  0.00    -0.396 OA
HETATM   73  H   LIG     1     -16.532 -24.936   0.900  1.00  0.00     0.210 HD
ENDBRANCH  61  72
ENDBRANCH  53  56
ENDBRANCH  49  52
ENDBRANCH  46  49
ENDBRANCH   3  46
TORSDOF 11
ENDMDL
MODEL 6
REMARK minimizedAffinity -6.84779263
REMARK minimizedRMSD -1
REMARK  11 active torsions:
REMARK  status: ('A' for Active; 'I' for Inactive)
REMARK    1  A    between atoms: N_1  and  S_2 
REMARK    2  A    between atoms: S_2  and  C_5 
REMARK    3  A    between atoms: C_8  and  C_9 
REMARK    4  A    between atoms: C_9  and  C_10 
REMARK    5  A    between atoms: C_14  and  N_15 
REMARK       I    between atoms: N_15  and  C_16 
REMARK       I    between atoms: C_16  and  N_18 
REMARK    6  A    between atoms: N_18  and  C_19 
REMARK    7  A    between atoms: C_21  and  C_22 
REMARK    8  A    between atoms: C_22  and  C_23 
REMARK    9  A    between atoms: C_23  and  N_24 
REMARK       I    between atoms: N_24  and  C_25 
REMARK   10  A    between atoms: C_25  and  C_27 
REMARK   11  A    between atoms: C_30  and  O_31 
ROOT
HETATM    1  C   LIG     1     -10.933 -32.363  -1.153  1.00  0.00     0.051 C 
HETATM    2  C   LIG     1     -11.731 -31.902  -2.129  1.00  0.00    -0.063 C 
HETATM    3  C   LIG     1     -12.562 -30.642  -1.972  1.00  0.00     0.045 C 
HETATM    4  C   LIG     1     -12.800 -30.353  -0.484  1.00  0.00     0.250 C 
HETATM    5  O   LIG     1     -13.862 -29.857  -0.111  1.00  0.00    -0.271 OA
HETATM    6  N   LIG     1     -11.754 -30.566   0.377  1.00  0.00    -0.224 NA
HETATM    7  C   LIG     1     -10.913 -31.499   0.069  1.00  0.00     0.031 C 
HETATM    8  H   LIG     1     -11.818 -32.420  -3.079  1.00  0.00     0.081 H 
HETATM    9  H   LIG     1     -13.549 -30.838  -2.413  1.00  0.00     0.061 H 
HETATM   10  H   LIG     1     -10.077 -31.630   0.765  1.00  0.00     0.118 H 
ENDROOT
BRANCH   1  11
HETATM   11  N   LIG     1     -10.161 -33.498  -1.309  1.00  0.00    -0.308 N 
HETATM   12  C   LIG     1      -8.775 -33.535  -1.351  1.00  0.00     0.325 C 
HETATM   13  N   LIG     1      -8.268 -34.817  -1.500  1.00  0.00    -0.309 N 
HETATM   14  O   LIG     1      -8.086 -32.529  -1.247  1.00  0.00    -0.247 OA
HETATM   15  H   LIG     1      -8.862 -35.582  -1.210  1.00  0.00     0.170 HD
HETATM   16  H   LIG     1     -10.651 -34.375  -1.408  1.00  0.00     0.170 HD
BRANCH  13  17
HETATM   17  C   LIG     1      -6.876 -35.092  -1.613  1.00  0.00     0.036 A 
HETATM   18  C   LIG     1      -5.976 -34.777  -0.592  1.00  0.00    -0.057 A 
HETATM   19  C   LIG     1      -4.655 -35.198  -0.649  1.00  0.00    -0.080 A 
HETATM   20  H   LIG     1      -6.279 -34.218   0.289  1.00  0.00     0.086 H 
HETATM   21  C   LIG     1      -4.198 -35.905  -1.755  1.00  0.00    -0.076 A 
HETATM   22  H   LIG     1      -3.990 -34.998   0.188  1.00  0.00     0.083 H 
HETATM   23  C   LIG     1      -5.042 -36.154  -2.848  1.00  0.00    -0.052 A 
HETATM   24  H   LIG     1      -3.172 -36.259  -1.738  1.00  0.00     0.084 H 
HETATM   25  C   LIG     1      -6.389 -35.737  -2.763  1.00  0.00    -0.051 A 
HETATM   26  H   LIG     1      -7.066 -35.967  -3.583  1.00  0.00     0.087 H 
BRANCH  23  27
HETATM   27  C   LIG     1      -4.566 -36.960  -4.043  1.00  0.00    -0.017 C 
HETATM   28  H   LIG     1      -3.469 -36.971  -4.042  1.00  0.00     0.047 H 
HETATM   29  H   LIG     1      -4.883 -38.005  -3.930  1.00  0.00     0.047 H 
BRANCH  27  30
HETATM   30  C   LIG     1      -5.062 -36.463  -5.394  1.00  0.00    -0.054 A 
HETATM   31  C   LIG     1      -5.883 -37.273  -6.195  1.00  0.00    -0.075 A 
HETATM   32  C   LIG     1      -6.421 -36.796  -7.395  1.00  0.00    -0.060 A 
HETATM   33  H   LIG     1      -6.115 -38.290  -5.870  1.00  0.00     0.084 H 
HETATM   34  C   LIG     1      -6.144 -35.488  -7.794  1.00  0.00     0.074 A 
HETATM   35  H   LIG     1      -7.044 -37.466  -7.987  1.00  0.00     0.085 H 
HETATM   36  C   LIG     1      -5.307 -34.669  -7.024  1.00  0.00    -0.060 A 
HETATM   37  C   LIG     1      -4.770 -35.159  -5.828  1.00  0.00    -0.075 A 
HETATM   38  H   LIG     1      -5.072 -33.657  -7.344  1.00  0.00     0.085 H 
HETATM   39  H   LIG     1      -4.144 -34.506  -5.221  1.00  0.00     0.084 H 
BRANCH  34  40
HETATM   40  S   LIG     1      -6.831 -34.814  -9.297  1.00  0.00     0.239 S 
HETATM   41  O   LIG     1      -8.265 -34.631  -9.105  1.00  0.00    -0.206 OA
HETATM   42  O   LIG     1      -6.304 -35.584 -10.384  1.00  0.00    -0.206 OA
BRANCH  40  43
HETATM   43  N   LIG     1      -6.091 -33.285  -9.353  1.00  0.00    -0.225 NA
HETATM   44  H   LIG     1      -6.720 -32.484  -9.266  1.00  0.00     0.136 HD
HETATM   45  H   LIG     1      -5.245 -33.184  -8.778  1.00  0.00     0.136 HD
ENDBRANCH  40  43
ENDBRANCH  34  40
ENDBRANCH  27  30
ENDBRANCH  23  27
ENDBRANCH  13  17
ENDBRANCH   1  11
BRANCH   3  46
HETATM   46  C   LIG     1     -11.892 -29.448  -2.678  1.00  0.00    -0.036 C 
HETATM   47  H   LIG     1     -11.113 -29.832  -3.349  1.00  0.00     0.037 H 
HETATM   48  H   LIG     1     -11.376 -28.819  -1.939  1.00  0.00     0.037 H 
BRANCH  46  49
HETATM   49  C   LIG     1     -12.864 -28.569  -3.480  1.00  0.00    -0.004 C 
HETATM   50  H   LIG     1     -13.280 -29.130  -4.322  1.00  0.00     0.064 H 
HETATM   51  H   LIG     1     -12.353 -27.683  -3.870  1.00  0.00     0.064 H 
BRANCH  49  52
HETATM   52  N   LIG     1     -14.010 -28.135  -2.684  1.00  0.00    -0.361 N 
HETATM   53  C   LIG     1     -14.713 -26.980  -2.929  1.00  0.00     0.221 C 
HETATM   54  O   LIG     1     -14.405 -26.202  -3.831  1.00  0.00    -0.273 OA
HETATM   55  H   LIG     1     -14.365 -28.797  -1.999  1.00  0.00     0.162 HD
BRANCH  53  56
HETATM   56  C   LIG     1     -15.851 -26.686  -1.923  1.00  0.00     0.024 C 
HETATM   57  C   LIG     1     -15.569 -27.234  -0.513  1.00  0.00    -0.051 C 
HETATM   58  C   LIG     1     -14.532 -26.422   0.272  1.00  0.00    -0.040 C 
HETATM   59  H   LIG     1     -15.243 -28.280  -0.564  1.00  0.00     0.034 H 
HETATM   60  H   LIG     1     -16.509 -27.235   0.053  1.00  0.00     0.034 H 
HETATM   61  C   LIG     1     -14.743 -24.910   0.237  1.00  0.00     0.035 C 
HETATM   62  H   LIG     1     -13.536 -26.653  -0.123  1.00  0.00     0.036 H 
HETATM   63  H   LIG     1     -14.548 -26.767   1.317  1.00  0.00     0.036 H 
HETATM   64  C   LIG     1     -15.130 -24.381  -1.153  1.00  0.00    -0.040 C 
HETATM   65  H   LIG     1     -13.817 -24.416   0.549  1.00  0.00     0.082 H 
HETATM   66  C   LIG     1     -16.234 -25.206  -1.808  1.00  0.00    -0.051 C 
HETATM   67  H   LIG     1     -14.246 -24.387  -1.802  1.00  0.00     0.036 H 
HETATM   68  H   LIG     1     -15.470 -23.344  -1.069  1.00  0.00     0.036 H 
HETATM   69  H   LIG     1     -16.483 -24.775  -2.781  1.00  0.00     0.034 H 
HETATM   70  H   LIG     1     -17.149 -25.126  -1.205  1.00  0.00     0.034 H 
HETATM   71  H   LIG     1     -16.719 -27.234  -2.315  1.00  0.00     0.054 H 
BRANCH  61  72
HETATM   72  O   LIG     1     -15.728 -24.540   1.195  1.00  0.00    -0.396 OA
HETATM   73  H   LIG     1     -16.587 -24.893   0.923  1.00  0.00     0.210 HD
ENDBRANCH  61  72
ENDBRANCH  53  56
ENDBRANCH  49  52
ENDBRANCH  46  49
ENDBRANCH   3  46
TORSDOF 11
ENDMDL
MODEL 7
REMARK minimizedAffinity -6.68320894
REMARK minimizedRMSD -1
REMARK  11 active torsions:
REMARK  status: ('A' for Active; 'I' for Inactive)
REMARK    1  A    between atoms: N_1  and  S_2 
REMARK    2  A    between atoms: S_2  and  C_5 
REMARK    3  A    between atoms: C_8  and  C_9 
REMARK    4  A    between atoms: C_9  and  C_10 
REMARK    5  A    between atoms: C_14  and  N_15 
REMARK       I    between atoms: N_15  and  C_16 
REMARK       I    between atoms: C_16  and  N_18 
REMARK    6  A    between atoms: N_18  and  C_19 
REMARK    7  A    between atoms: C_21  and  C_22 
REMARK    8  A    between atoms: C_22  and  C_23 
REMARK    9  A    between atoms: C_23  and  N_24 
REMARK       I    between atoms: N_24  and  C_25 
REMARK   10  A    between atoms: C_25  and  C_27 
REMARK   11  A    between atoms: C_30  and  O_31 
ROOT
HETATM    1  C   LIG     1     -11.888 -26.577  -3.319  1.00  0.00     0.051 C 
HETATM    2  C   LIG     1     -11.641 -25.497  -2.562  1.00  0.00    -0.063 C 
HETATM    3  C   LIG     1     -12.114 -24.108  -2.949  1.00  0.00     0.045 C 
HETATM    4  C   LIG     1     -12.351 -24.037  -4.462  1.00  0.00     0.250 C 
HETATM    5  O   LIG     1     -12.112 -23.000  -5.080  1.00  0.00    -0.271 OA
HETATM    6  N   LIG     1     -12.932 -25.124  -5.064  1.00  0.00    -0.224 NA
HETATM    7  C   LIG     1     -12.701 -26.285  -4.541  1.00  0.00     0.031 C 
HETATM    8  H   LIG     1     -11.083 -25.574  -1.634  1.00  0.00     0.081 H 
HETATM    9  H   LIG     1     -11.300 -23.406  -2.727  1.00  0.00     0.061 H 
HETATM   10  H   LIG     1     -13.196 -27.131  -5.031  1.00  0.00     0.118 H 
ENDROOT
BRANCH   1  11
HETATM   11  N   LIG     1     -11.474 -27.843  -2.952  1.00  0.00    -0.308 N 
HETATM   12  C   LIG     1     -10.777 -28.732  -3.757  1.00  0.00     0.325 C 
HETATM   13  N   LIG     1     -10.477 -29.926  -3.117  1.00  0.00    -0.309 N 
HETATM   14  O   LIG     1     -10.453 -28.465  -4.906  1.00  0.00    -0.247 OA
HETATM   15  H   LIG     1     -10.450 -29.911  -2.107  1.00  0.00     0.170 HD
HETATM   16  H   LIG     1     -11.704 -28.147  -2.018  1.00  0.00     0.170 HD
BRANCH  13  17
HETATM   17  C   LIG     1      -9.809 -31.004  -3.763  1.00  0.00     0.036 A 
HETATM   18  C   LIG     1      -8.496 -31.360  -3.438  1.00  0.00    -0.057 A 
HETATM   19  C   LIG     1      -7.919 -32.510  -3.956  1.00  0.00    -0.080 A 
HETATM   20  H   LIG     1      -7.894 -30.770  -2.753  1.00  0.00     0.086 H 
HETATM   21  C   LIG     1      -8.631 -33.303  -4.849  1.00  0.00    -0.076 A 
HETATM   22  H   LIG     1      -6.922 -32.802  -3.637  1.00  0.00     0.083 H 
HETATM   23  C   LIG     1      -9.912 -32.928  -5.281  1.00  0.00    -0.052 A 
HETATM   24  H   LIG     1      -8.161 -34.220  -5.193  1.00  0.00     0.084 H 
HETATM   25  C   LIG     1     -10.492 -31.766  -4.726  1.00  0.00    -0.051 A 
HETATM   26  H   LIG     1     -11.504 -31.491  -5.016  1.00  0.00     0.087 H 
BRANCH  23  27
HETATM   27  C   LIG     1     -10.714 -33.806  -6.224  1.00  0.00    -0.017 C 
HETATM   28  H   LIG     1     -10.357 -34.840  -6.127  1.00  0.00     0.047 H 
HETATM   29  H   LIG     1     -11.766 -33.815  -5.911  1.00  0.00     0.047 H 
BRANCH  27  30
HETATM   30  C   LIG     1     -10.664 -33.393  -7.689  1.00  0.00    -0.054 A 
HETATM   31  C   LIG     1      -9.556 -33.725  -8.486  1.00  0.00    -0.075 A 
HETATM   32  C   LIG     1      -9.537 -33.433  -9.853  1.00  0.00    -0.060 A 
HETATM   33  H   LIG     1      -8.700 -34.229  -8.032  1.00  0.00     0.084 H 
HETATM   34  C   LIG     1     -10.643 -32.813 -10.436  1.00  0.00     0.074 A 
HETATM   35  H   LIG     1      -8.650 -33.700 -10.428  1.00  0.00     0.085 H 
HETATM   36  C   LIG     1     -11.750 -32.450  -9.655  1.00  0.00    -0.060 A 
HETATM   37  C   LIG     1     -11.756 -32.742  -8.286  1.00  0.00    -0.075 A 
HETATM   38  H   LIG     1     -12.604 -31.947 -10.102  1.00  0.00     0.085 H 
HETATM   39  H   LIG     1     -12.633 -32.483  -7.693  1.00  0.00     0.084 H 
BRANCH  34  40
HETATM   40  S   LIG     1     -10.689 -32.448 -12.182  1.00  0.00     0.239 S 
HETATM   41  O   LIG     1     -11.963 -32.917 -12.716  1.00  0.00    -0.206 OA
HETATM   42  O   LIG     1      -9.435 -32.870 -12.732  1.00  0.00    -0.206 OA
BRANCH  40  43
HETATM   43  N   LIG     1     -10.694 -30.749 -12.174  1.00  0.00    -0.225 NA
HETATM   44  H   LIG     1     -11.538 -30.306 -12.542  1.00  0.00     0.136 HD
HETATM   45  H   LIG     1     -10.368 -30.312 -11.304  1.00  0.00     0.136 HD
ENDBRANCH  40  43
ENDBRANCH  34  40
ENDBRANCH  27  30
ENDBRANCH  23  27
ENDBRANCH  13  17
ENDBRANCH   1  11
BRANCH   3  46
HETATM   46  C   LIG     1     -13.380 -23.718  -2.162  1.00  0.00    -0.036 C 
HETATM   47  H   LIG     1     -14.164 -24.457  -2.372  1.00  0.00     0.037 H 
HETATM   48  H   LIG     1     -13.763 -22.754  -2.525  1.00  0.00     0.037 H 
BRANCH  46  49
HETATM   49  C   LIG     1     -13.168 -23.624  -0.644  1.00  0.00    -0.004 C 
HETATM   50  H   LIG     1     -13.781 -22.821  -0.222  1.00  0.00     0.064 H 
HETATM   51  H   LIG     1     -12.118 -23.419  -0.410  1.00  0.00     0.064 H 
BRANCH  49  52
HETATM   52  N   LIG     1     -13.573 -24.843   0.053  1.00  0.00    -0.361 N 
HETATM   53  C   LIG     1     -14.869 -25.299   0.098  1.00  0.00     0.221 C 
HETATM   54  O   LIG     1     -15.799 -24.689  -0.428  1.00  0.00    -0.273 OA
HETATM   55  H   LIG     1     -12.826 -25.433   0.409  1.00  0.00     0.162 HD
BRANCH  53  56
HETATM   56  C   LIG     1     -15.078 -26.577   0.945  1.00  0.00     0.024 C 
HETATM   57  C   LIG     1     -15.938 -27.638   0.235  1.00  0.00    -0.051 C 
HETATM   58  C   LIG     1     -15.205 -28.383  -0.887  1.00  0.00    -0.040 C 
HETATM   59  H   LIG     1     -16.852 -27.185  -0.170  1.00  0.00     0.034 H 
HETATM   60  H   LIG     1     -16.268 -28.373   0.981  1.00  0.00     0.034 H 
HETATM   61  C   LIG     1     -13.807 -28.877  -0.520  1.00  0.00     0.035 C 
HETATM   62  H   LIG     1     -15.132 -27.719  -1.757  1.00  0.00     0.036 H 
HETATM   63  H   LIG     1     -15.825 -29.239  -1.191  1.00  0.00     0.036 H 
HETATM   64  C   LIG     1     -12.989 -27.853   0.282  1.00  0.00    -0.040 C 
HETATM   65  H   LIG     1     -13.261 -29.110  -1.440  1.00  0.00     0.082 H 
HETATM   66  C   LIG     1     -13.784 -27.239   1.432  1.00  0.00    -0.051 C 
HETATM   67  H   LIG     1     -12.654 -27.052  -0.388  1.00  0.00     0.036 H 
HETATM   68  H   LIG     1     -12.097 -28.336   0.692  1.00  0.00     0.036 H 
HETATM   69  H   LIG     1     -13.150 -26.536   1.979  1.00  0.00     0.034 H 
HETATM   70  H   LIG     1     -14.043 -28.027   2.152  1.00  0.00     0.034 H 
HETATM   71  H   LIG     1     -15.642 -26.240   1.825  1.00  0.00     0.054 H 
BRANCH  61  72
HETATM   72  O   LIG     1     -13.904 -30.100   0.201  1.00  0.00    -0.396 OA
HETATM   73  H   LIG     1     -14.317 -29.934   1.060  1.00  0.00     0.210 HD
ENDBRANCH  61  72
ENDBRANCH  53  56
ENDBRANCH  49  52
ENDBRANCH  46  49
ENDBRANCH   3  46
TORSDOF 11
ENDMDL
MODEL 8
REMARK minimizedAffinity -6.2524066
REMARK minimizedRMSD -1
REMARK  11 active torsions:
REMARK  status: ('A' for Active; 'I' for Inactive)
REMARK    1  A    between atoms: N_1  and  S_2 
REMARK    2  A    between atoms: S_2  and  C_5 
REMARK    3  A    between atoms: C_8  and  C_9 
REMARK    4  A    between atoms: C_9  and  C_10 
REMARK    5  A    between atoms: C_14  and  N_15 
REMARK       I    between atoms: N_15  and  C_16 
REMARK       I    between atoms: C_16  and  N_18 
REMARK    6  A    between atoms: N_18  and  C_19 
REMARK    7  A    between atoms: C_21  and  C_22 
REMARK    8  A    between atoms: C_22  and  C_23 
REMARK    9  A    between atoms: C_23  and  N_24 
REMARK       I    between atoms: N_24  and  C_25 
REMARK   10  A    between atoms: C_25  and  C_27 
REMARK   11  A    between atoms: C_30  and  O_31 
ROOT
HETATM    1  C   LIG     1     -12.512 -32.124  -4.143  1.00  0.00     0.051 C 
HETATM    2  C   LIG     1     -13.388 -31.235  -3.651  1.00  0.00    -0.063 C 
HETATM    3  C   LIG     1     -13.240 -30.626  -2.269  1.00  0.00     0.045 C 
HETATM    4  C   LIG     1     -12.384 -31.540  -1.383  1.00  0.00     0.250 C 
HETATM    5  O   LIG     1     -12.624 -31.641  -0.181  1.00  0.00    -0.271 OA
HETATM    6  N   LIG     1     -11.295 -32.142  -1.960  1.00  0.00    -0.224 NA
HETATM    7  C   LIG     1     -11.369 -32.418  -3.222  1.00  0.00     0.031 C 
HETATM    8  H   LIG     1     -14.249 -30.913  -4.229  1.00  0.00     0.081 H 
HETATM    9  H   LIG     1     -14.238 -30.595  -1.812  1.00  0.00     0.061 H 
HETATM   10  H   LIG     1     -10.476 -32.878  -3.658  1.00  0.00     0.118 H 
ENDROOT
BRANCH   1  11
HETATM   11  N   LIG     1     -12.638 -32.658  -5.411  1.00  0.00    -0.308 N 
HETATM   12  C   LIG     1     -11.763 -32.452  -6.467  1.00  0.00     0.325 C 
HETATM   13  N   LIG     1     -12.132 -33.128  -7.621  1.00  0.00    -0.309 N 
HETATM   14  O   LIG     1     -10.762 -31.754  -6.366  1.00  0.00    -0.247 OA
HETATM   15  H   LIG     1     -12.727 -33.936  -7.508  1.00  0.00     0.170 HD
HETATM   16  H   LIG     1     -13.442 -33.244  -5.583  1.00  0.00     0.170 HD
BRANCH  13  17
HETATM   17  C   LIG     1     -11.409 -33.027  -8.843  1.00  0.00     0.036 A 
HETATM   18  C   LIG     1     -11.747 -32.092  -9.826  1.00  0.00    -0.057 A 
HETATM   19  C   LIG     1     -10.935 -31.896 -10.934  1.00  0.00    -0.080 A 
HETATM   20  H   LIG     1     -12.634 -31.472  -9.747  1.00  0.00     0.086 H 
HETATM   21  C   LIG     1      -9.791 -32.668 -11.103  1.00  0.00    -0.076 A 
HETATM   22  H   LIG     1     -11.183 -31.118 -11.652  1.00  0.00     0.083 H 
HETATM   23  C   LIG     1      -9.470 -33.686 -10.193  1.00  0.00    -0.052 A 
HETATM   24  H   LIG     1      -9.158 -32.449 -11.957  1.00  0.00     0.084 H 
HETATM   25  C   LIG     1     -10.295 -33.856  -9.059  1.00  0.00    -0.051 A 
HETATM   26  H   LIG     1     -10.030 -34.610  -8.321  1.00  0.00     0.087 H 
BRANCH  23  27
HETATM   27  C   LIG     1      -8.202 -34.508 -10.344  1.00  0.00    -0.017 C 
HETATM   28  H   LIG     1      -8.484 -35.554 -10.523  1.00  0.00     0.047 H 
HETATM   29  H   LIG     1      -7.658 -34.180 -11.240  1.00  0.00     0.047 H 
BRANCH  27  30
HETATM   30  C   LIG     1      -7.245 -34.440  -9.162  1.00  0.00    -0.054 A 
HETATM   31  C   LIG     1      -6.744 -33.205  -8.721  1.00  0.00    -0.075 A 
HETATM   32  C   LIG     1      -5.938 -33.118  -7.581  1.00  0.00    -0.060 A 
HETATM   33  H   LIG     1      -6.998 -32.295  -9.270  1.00  0.00     0.084 H 
HETATM   34  C   LIG     1      -5.638 -34.279  -6.866  1.00  0.00     0.074 A 
HETATM   35  H   LIG     1      -5.565 -32.138  -7.284  1.00  0.00     0.085 H 
HETATM   36  C   LIG     1      -6.107 -35.525  -7.303  1.00  0.00    -0.060 A 
HETATM   37  C   LIG     1      -6.908 -35.601  -8.448  1.00  0.00    -0.075 A 
HETATM   38  H   LIG     1      -5.856 -36.434  -6.760  1.00  0.00     0.085 H 
HETATM   39  H   LIG     1      -7.292 -36.571  -8.763  1.00  0.00     0.084 H 
BRANCH  34  40
HETATM   40  S   LIG     1      -4.644 -34.223  -5.385  1.00  0.00     0.239 S 
HETATM   41  O   LIG     1      -4.434 -35.590  -4.922  1.00  0.00    -0.206 OA
HETATM   42  O   LIG     1      -5.207 -33.214  -4.538  1.00  0.00    -0.206 OA
BRANCH  40  43
HETATM   43  N   LIG     1      -3.174 -33.620  -5.986  1.00  0.00    -0.225 NA
HETATM   44  H   LIG     1      -2.377 -34.256  -5.928  1.00  0.00     0.136 HD
HETATM   45  H   LIG     1      -3.231 -33.143  -6.894  1.00  0.00     0.136 HD
ENDBRANCH  40  43
ENDBRANCH  34  40
ENDBRANCH  27  30
ENDBRANCH  23  27
ENDBRANCH  13  17
ENDBRANCH   1  11
BRANCH   3  46
HETATM   46  C   LIG     1     -12.649 -29.207  -2.352  1.00  0.00    -0.036 C 
HETATM   47  H   LIG     1     -11.563 -29.288  -2.488  1.00  0.00     0.037 H 
HETATM   48  H   LIG     1     -12.799 -28.684  -1.397  1.00  0.00     0.037 H 
BRANCH  46  49
HETATM   49  C   LIG     1     -13.238 -28.348  -3.481  1.00  0.00    -0.004 C 
HETATM   50  H   LIG     1     -13.741 -28.980  -4.218  1.00  0.00     0.064 H 
HETATM   51  H   LIG     1     -12.450 -27.781  -3.987  1.00  0.00     0.064 H 
BRANCH  49  52
HETATM   52  N   LIG     1     -14.252 -27.413  -2.999  1.00  0.00    -0.361 N 
HETATM   53  C   LIG     1     -14.148 -26.048  -3.122  1.00  0.00     0.221 C 
HETATM   54  O   LIG     1     -13.166 -25.506  -3.628  1.00  0.00    -0.273 OA
HETATM   55  H   LIG     1     -15.126 -27.817  -2.673  1.00  0.00     0.162 HD
BRANCH  53  56
HETATM   56  C   LIG     1     -15.310 -25.248  -2.486  1.00  0.00     0.024 C 
HETATM   57  C   LIG     1     -16.192 -26.098  -1.555  1.00  0.00    -0.051 C 
HETATM   58  C   LIG     1     -15.541 -26.416  -0.204  1.00  0.00    -0.040 C 
HETATM   59  H   LIG     1     -16.478 -27.036  -2.046  1.00  0.00     0.034 H 
HETATM   60  H   LIG     1     -17.127 -25.553  -1.369  1.00  0.00     0.034 H 
HETATM   61  C   LIG     1     -14.894 -25.220   0.493  1.00  0.00     0.035 C 
HETATM   62  H   LIG     1     -14.782 -27.193  -0.355  1.00  0.00     0.036 H 
HETATM   63  H   LIG     1     -16.310 -26.847   0.454  1.00  0.00     0.036 H 
HETATM   64  C   LIG     1     -14.102 -24.313  -0.462  1.00  0.00    -0.040 C 
HETATM   65  H   LIG     1     -14.211 -25.587   1.266  1.00  0.00     0.082 H 
HETATM   66  C   LIG     1     -14.878 -23.983  -1.735  1.00  0.00    -0.051 C 
HETATM   67  H   LIG     1     -13.162 -24.807  -0.734  1.00  0.00     0.036 H 
HETATM   68  H   LIG     1     -13.848 -23.378   0.045  1.00  0.00     0.036 H 
HETATM   69  H   LIG     1     -14.278 -23.322  -2.366  1.00  0.00     0.034 H 
HETATM   70  H   LIG     1     -15.775 -23.408  -1.471  1.00  0.00     0.034 H 
HETATM   71  H   LIG     1     -15.937 -24.943  -3.335  1.00  0.00     0.054 H 
BRANCH  61  72
HETATM   72  O   LIG     1     -15.890 -24.464   1.173  1.00  0.00    -0.396 OA
HETATM   73  H   LIG     1     -16.481 -24.056   0.525  1.00  0.00     0.210 HD
ENDBRANCH  61  72
ENDBRANCH  53  56
ENDBRANCH  49  52
ENDBRANCH  46  49
ENDBRANCH   3  46
TORSDOF 11
ENDMDL
MODEL 9
REMARK minimizedAffinity -6.20098257
REMARK minimizedRMSD -1
REMARK  11 active torsions:
REMARK  status: ('A' for Active; 'I' for Inactive)
REMARK    1  A    between atoms: N_1  and  S_2 
REMARK    2  A    between atoms: S_2  and  C_5 
REMARK    3  A    between atoms: C_8  and  C_9 
REMARK    4  A    between atoms: C_9  and  C_10 
REMARK    5  A    between atoms: C_14  and  N_15 
REMARK       I    between atoms: N_15  and  C_16 
REMARK       I    between atoms: C_16  and  N_18 
REMARK    6  A    between atoms: N_18  and  C_19 
REMARK    7  A    between atoms: C_21  and  C_22 
REMARK    8  A    between atoms: C_22  and  C_23 
REMARK    9  A    between atoms: C_23  and  N_24 
REMARK       I    between atoms: N_24  and  C_25 
REMARK   10  A    between atoms: C_25  and  C_27 
REMARK   11  A    between atoms: C_30  and  O_31 
ROOT
HETATM    1  C   LIG     1      -6.014 -35.032  -9.220  1.00  0.00     0.051 C 
HETATM    2  C   LIG     1      -6.066 -33.976 -10.048  1.00  0.00    -0.063 C 
HETATM    3  C   LIG     1      -6.545 -34.092 -11.483  1.00  0.00     0.045 C 
HETATM    4  C   LIG     1      -6.390 -35.537 -11.973  1.00  0.00     0.250 C 
HETATM    5  O   LIG     1      -6.093 -35.767 -13.144  1.00  0.00    -0.271 OA
HETATM    6  N   LIG     1      -6.699 -36.541 -11.091  1.00  0.00    -0.224 NA
HETATM    7  C   LIG     1      -6.509 -36.304  -9.833  1.00  0.00     0.031 C 
HETATM    8  H   LIG     1      -5.761 -32.987  -9.721  1.00  0.00     0.081 H 
HETATM    9  H   LIG     1      -5.880 -33.478 -12.105  1.00  0.00     0.061 H 
HETATM   10  H   LIG     1      -6.785 -37.117  -9.152  1.00  0.00     0.118 H 
ENDROOT
BRANCH   1  11
HETATM   11  N   LIG     1      -5.599 -34.917  -7.908  1.00  0.00    -0.308 N 
HETATM   12  C   LIG     1      -6.428 -34.892  -6.796  1.00  0.00     0.325 C 
HETATM   13  N   LIG     1      -5.732 -34.786  -5.600  1.00  0.00    -0.309 N 
HETATM   14  O   LIG     1      -7.646 -34.974  -6.881  1.00  0.00    -0.247 OA
HETATM   15  H   LIG     1      -4.769 -35.091  -5.601  1.00  0.00     0.170 HD
HETATM   16  H   LIG     1      -4.606 -34.839  -7.747  1.00  0.00     0.170 HD
BRANCH  13  17
HETATM   17  C   LIG     1      -6.377 -34.696  -4.334  1.00  0.00     0.036 A 
HETATM   18  C   LIG     1      -6.380 -35.761  -3.430  1.00  0.00    -0.057 A 
HETATM   19  C   LIG     1      -6.868 -35.602  -2.140  1.00  0.00    -0.080 A 
HETATM   20  H   LIG     1      -5.980 -36.737  -3.690  1.00  0.00     0.086 H 
HETATM   21  C   LIG     1      -7.407 -34.383  -1.747  1.00  0.00    -0.076 A 
HETATM   22  H   LIG     1      -6.799 -36.426  -1.434  1.00  0.00     0.083 H 
HETATM   23  C   LIG     1      -7.517 -33.319  -2.655  1.00  0.00    -0.052 A 
HETATM   24  H   LIG     1      -7.733 -34.286  -0.715  1.00  0.00     0.084 H 
HETATM   25  C   LIG     1      -6.995 -33.491  -3.956  1.00  0.00    -0.051 A 
HETATM   26  H   LIG     1      -7.030 -32.658  -4.654  1.00  0.00     0.087 H 
BRANCH  23  27
HETATM   27  C   LIG     1      -8.067 -31.970  -2.225  1.00  0.00    -0.017 C 
HETATM   28  H   LIG     1      -7.979 -31.889  -1.134  1.00  0.00     0.047 H 
HETATM   29  H   LIG     1      -7.441 -31.170  -2.643  1.00  0.00     0.047 H 
BRANCH  27  30
HETATM   30  C   LIG     1      -9.508 -31.701  -2.635  1.00  0.00    -0.054 A 
HETATM   31  C   LIG     1     -10.526 -32.607  -2.296  1.00  0.00    -0.075 A 
HETATM   32  C   LIG     1     -11.867 -32.329  -2.585  1.00  0.00    -0.060 A 
HETATM   33  H   LIG     1     -10.269 -33.539  -1.787  1.00  0.00     0.084 H 
HETATM   34  C   LIG     1     -12.195 -31.125  -3.211  1.00  0.00     0.074 A 
HETATM   35  H   LIG     1     -12.620 -33.068  -2.311  1.00  0.00     0.085 H 
HETATM   36  C   LIG     1     -11.193 -30.218  -3.581  1.00  0.00    -0.060 A 
HETATM   37  C   LIG     1      -9.855 -30.510  -3.291  1.00  0.00    -0.075 A 
HETATM   38  H   LIG     1     -11.444 -29.290  -4.088  1.00  0.00     0.085 H 
HETATM   39  H   LIG     1      -9.086 -29.785  -3.557  1.00  0.00     0.084 H 
BRANCH  34  40
HETATM   40  S   LIG     1     -13.890 -30.702  -3.571  1.00  0.00     0.239 S 
HETATM   41  O   LIG     1     -13.917 -29.358  -4.138  1.00  0.00    -0.206 OA
HETATM   42  O   LIG     1     -14.667 -31.055  -2.420  1.00  0.00    -0.206 OA
BRANCH  40  43
HETATM   43  N   LIG     1     -14.265 -31.817  -4.798  1.00  0.00    -0.225 NA
HETATM   44  H   LIG     1     -14.466 -31.416  -5.716  1.00  0.00     0.136 HD
HETATM   45  H   LIG     1     -13.646 -32.635  -4.853  1.00  0.00     0.136 HD
ENDBRANCH  40  43
ENDBRANCH  34  40
ENDBRANCH  27  30
ENDBRANCH  23  27
ENDBRANCH  13  17
ENDBRANCH   1  11
BRANCH   3  46
HETATM   46  C   LIG     1      -7.999 -33.603 -11.620  1.00  0.00    -0.036 C 
HETATM   47  H   LIG     1      -8.613 -34.118 -10.870  1.00  0.00     0.037 H 
HETATM   48  H   LIG     1      -8.402 -33.899 -12.599  1.00  0.00     0.037 H 
BRANCH  46  49
HETATM   49  C   LIG     1      -8.168 -32.086 -11.456  1.00  0.00    -0.004 C 
HETATM   50  H   LIG     1      -8.410 -31.622 -12.417  1.00  0.00     0.064 H 
HETATM   51  H   LIG     1      -7.248 -31.632 -11.073  1.00  0.00     0.064 H 
BRANCH  49  52
HETATM   52  N   LIG     1      -9.268 -31.740 -10.559  1.00  0.00    -0.361 N 
HETATM   53  C   LIG     1      -9.103 -31.465  -9.223  1.00  0.00     0.221 C 
HETATM   54  O   LIG     1      -8.004 -31.520  -8.671  1.00  0.00    -0.273 OA
HETATM   55  H   LIG     1     -10.175 -31.579 -10.991  1.00  0.00     0.162 HD
BRANCH  53  56
HETATM   56  C   LIG     1     -10.414 -31.184  -8.450  1.00  0.00     0.024 C 
HETATM   57  C   LIG     1     -11.577 -32.096  -8.879  1.00  0.00    -0.051 C 
HETATM   58  C   LIG     1     -11.463 -33.534  -8.359  1.00  0.00    -0.040 C 
HETATM   59  H   LIG     1     -11.668 -32.115  -9.972  1.00  0.00     0.034 H 
HETATM   60  H   LIG     1     -12.513 -31.665  -8.502  1.00  0.00     0.034 H 
HETATM   61  C   LIG     1     -11.110 -33.653  -6.878  1.00  0.00     0.035 C 
HETATM   62  H   LIG     1     -10.704 -34.060  -8.950  1.00  0.00     0.036 H 
HETATM   63  H   LIG     1     -12.420 -34.042  -8.547  1.00  0.00     0.036 H 
HETATM   64  C   LIG     1     -10.022 -32.665  -6.429  1.00  0.00    -0.040 C 
HETATM   65  H   LIG     1     -10.756 -34.670  -6.678  1.00  0.00     0.082 H 
HETATM   66  C   LIG     1     -10.280 -31.244  -6.923  1.00  0.00    -0.051 C 
HETATM   67  H   LIG     1      -9.048 -33.003  -6.805  1.00  0.00     0.036 H 
HETATM   68  H   LIG     1      -9.967 -32.651  -5.336  1.00  0.00     0.036 H 
HETATM   69  H   LIG     1      -9.489 -30.583  -6.560  1.00  0.00     0.034 H 
HETATM   70  H   LIG     1     -11.210 -30.870  -6.475  1.00  0.00     0.034 H 
HETATM   71  H   LIG     1     -10.688 -30.158  -8.728  1.00  0.00     0.054 H 
BRANCH  61  72
HETATM   72  O   LIG     1     -12.283 -33.483  -6.090  1.00  0.00    -0.396 OA
HETATM   73  H   LIG     1     -12.596 -32.571  -6.174  1.00  0.00     0.210 HD
ENDBRANCH  61  72
ENDBRANCH  53  56
ENDBRANCH  49  52
ENDBRANCH  46  49
ENDBRANCH   3  46
TORSDOF 11
ENDMDL
MODEL 10
REMARK minimizedAffinity -5.73188257
REMARK minimizedRMSD -1
REMARK  11 active torsions:
REMARK  status: ('A' for Active; 'I' for Inactive)
REMARK    1  A    between atoms: N_1  and  S_2 
REMARK    2  A    between atoms: S_2  and  C_5 
REMARK    3  A    between atoms: C_8  and  C_9 
REMARK    4  A    between atoms: C_9  and  C_10 
REMARK    5  A    between atoms: C_14  and  N_15 
REMARK       I    between atoms: N_15  and  C_16 
REMARK       I    between atoms: C_16  and  N_18 
REMARK    6  A    between atoms: N_18  and  C_19 
REMARK    7  A    between atoms: C_21  and  C_22 
REMARK    8  A    between atoms: C_22  and  C_23 
REMARK    9  A    between atoms: C_23  and  N_24 
REMARK       I    between atoms: N_24  and  C_25 
REMARK   10  A    between atoms: C_25  and  C_27 
REMARK   11  A    between atoms: C_30  and  O_31 
ROOT
HETATM    1  C   LIG     1      -5.812 -35.529  -7.538  1.00  0.00     0.051 C 
HETATM    2  C   LIG     1      -5.839 -34.534  -8.438  1.00  0.00    -0.063 C 
HETATM    3  C   LIG     1      -6.149 -34.771  -9.904  1.00  0.00     0.045 C 
HETATM    4  C   LIG     1      -5.851 -36.230 -10.273  1.00  0.00     0.250 C 
HETATM    5  O   LIG     1      -5.414 -36.511 -11.389  1.00  0.00    -0.271 OA
HETATM    6  N   LIG     1      -6.191 -37.196  -9.361  1.00  0.00    -0.224 NA
HETATM    7  C   LIG     1      -6.156 -36.869  -8.110  1.00  0.00     0.031 C 
HETATM    8  H   LIG     1      -5.634 -33.508  -8.150  1.00  0.00     0.081 H 
HETATM    9  H   LIG     1      -5.459 -34.153 -10.494  1.00  0.00     0.061 H 
HETATM   10  H   LIG     1      -6.453 -37.655  -7.408  1.00  0.00     0.118 H 
ENDROOT
BRANCH   1  11
HETATM   11  N   LIG     1      -5.551 -35.305  -6.201  1.00  0.00    -0.308 N 
HETATM   12  C   LIG     1      -6.391 -34.651  -5.311  1.00  0.00     0.325 C 
HETATM   13  N   LIG     1      -5.877 -34.586  -4.024  1.00  0.00    -0.309 N 
HETATM   14  O   LIG     1      -7.479 -34.200  -5.643  1.00  0.00    -0.247 OA
HETATM   15  H   LIG     1      -5.186 -35.278  -3.770  1.00  0.00     0.170 HD
HETATM   16  H   LIG     1      -4.669 -35.641  -5.843  1.00  0.00     0.170 HD
BRANCH  13  17
HETATM   17  C   LIG     1      -6.544 -33.922  -2.956  1.00  0.00     0.036 A 
HETATM   18  C   LIG     1      -5.892 -32.986  -2.147  1.00  0.00    -0.057 A 
HETATM   19  C   LIG     1      -6.596 -32.230  -1.221  1.00  0.00    -0.080 A 
HETATM   20  H   LIG     1      -4.826 -32.798  -2.231  1.00  0.00     0.086 H 
HETATM   21  C   LIG     1      -7.961 -32.431  -1.054  1.00  0.00    -0.076 A 
HETATM   22  H   LIG     1      -6.080 -31.462  -0.650  1.00  0.00     0.083 H 
HETATM   23  C   LIG     1      -8.635 -33.430  -1.772  1.00  0.00    -0.052 A 
HETATM   24  H   LIG     1      -8.483 -31.784  -0.354  1.00  0.00     0.084 H 
HETATM   25  C   LIG     1      -7.907 -34.174  -2.727  1.00  0.00    -0.051 A 
HETATM   26  H   LIG     1      -8.428 -34.918  -3.325  1.00  0.00     0.087 H 
BRANCH  23  27
HETATM   27  C   LIG     1     -10.133 -33.631  -1.628  1.00  0.00    -0.017 C 
HETATM   28  H   LIG     1     -10.525 -34.020  -2.577  1.00  0.00     0.047 H 
HETATM   29  H   LIG     1     -10.327 -34.406  -0.875  1.00  0.00     0.047 H 
BRANCH  27  30
HETATM   30  C   LIG     1     -10.915 -32.386  -1.234  1.00  0.00    -0.054 A 
HETATM   31  C   LIG     1     -11.229 -32.138   0.113  1.00  0.00    -0.075 A 
HETATM   32  C   LIG     1     -11.866 -30.954   0.500  1.00  0.00    -0.060 A 
HETATM   33  H   LIG     1     -10.961 -32.876   0.871  1.00  0.00     0.084 H 
HETATM   34  C   LIG     1     -12.183 -30.001  -0.468  1.00  0.00     0.074 A 
HETATM   35  H   LIG     1     -12.099 -30.812   1.555  1.00  0.00     0.085 H 
HETATM   36  C   LIG     1     -11.902 -30.238  -1.821  1.00  0.00    -0.060 A 
HETATM   37  C   LIG     1     -11.269 -31.428  -2.197  1.00  0.00    -0.075 A 
HETATM   38  H   LIG     1     -12.168 -29.506  -2.580  1.00  0.00     0.085 H 
HETATM   39  H   LIG     1     -11.028 -31.590  -3.248  1.00  0.00     0.084 H 
BRANCH  34  40
HETATM   40  S   LIG     1     -12.964 -28.458  -0.028  1.00  0.00     0.239 S 
HETATM   41  O   LIG     1     -14.252 -28.754   0.589  1.00  0.00    -0.206 OA
HETATM   42  O   LIG     1     -12.849 -27.589  -1.162  1.00  0.00    -0.206 OA
BRANCH  40  43
HETATM   43  N   LIG     1     -11.909 -27.873   1.169  1.00  0.00    -0.225 NA
HETATM   44  H   LIG     1     -12.303 -27.795   2.108  1.00  0.00     0.136 HD
HETATM   45  H   LIG     1     -10.970 -28.290   1.170  1.00  0.00     0.136 HD
ENDBRANCH  40  43
ENDBRANCH  34  40
ENDBRANCH  27  30
ENDBRANCH  23  27
ENDBRANCH  13  17
ENDBRANCH   1  11
BRANCH   3  46
HETATM   46  C   LIG     1      -7.607 -34.395 -10.227  1.00  0.00    -0.036 C 
HETATM   47  H   LIG     1      -8.254 -34.792  -9.434  1.00  0.00     0.037 H 
HETATM   48  H   LIG     1      -7.924 -34.890 -11.156  1.00  0.00     0.037 H 
BRANCH  46  49
HETATM   49  C   LIG     1      -7.848 -32.885 -10.367  1.00  0.00    -0.004 C 
HETATM   50  H   LIG     1      -8.014 -32.620 -11.416  1.00  0.00     0.064 H 
HETATM   51  H   LIG     1      -6.986 -32.319  -9.998  1.00  0.00     0.064 H 
BRANCH  49  52
HETATM   52  N   LIG     1      -9.041 -32.441  -9.650  1.00  0.00    -0.361 N 
HETATM   53  C   LIG     1      -9.001 -31.744  -8.466  1.00  0.00     0.221 C 
HETATM   54  O   LIG     1      -7.944 -31.465  -7.902  1.00  0.00    -0.273 OA
HETATM   55  H   LIG     1      -9.929 -32.554 -10.131  1.00  0.00     0.162 HD
BRANCH  53  56
HETATM   56  C   LIG     1     -10.386 -31.429  -7.851  1.00  0.00     0.024 C 
HETATM   57  C   LIG     1     -11.379 -32.598  -7.967  1.00  0.00    -0.051 C 
HETATM   58  C   LIG     1     -11.100 -33.750  -6.994  1.00  0.00    -0.040 C 
HETATM   59  H   LIG     1     -11.396 -32.989  -8.992  1.00  0.00     0.034 H 
HETATM   60  H   LIG     1     -12.390 -32.216  -7.770  1.00  0.00     0.034 H 
HETATM   61  C   LIG     1     -10.830 -33.319  -5.553  1.00  0.00     0.035 C 
HETATM   62  H   LIG     1     -10.237 -34.317  -7.363  1.00  0.00     0.036 H 
HETATM   63  H   LIG     1     -11.962 -34.432  -7.014  1.00  0.00     0.036 H 
HETATM   64  C   LIG     1      -9.923 -32.084  -5.446  1.00  0.00    -0.040 C 
HETATM   65  H   LIG     1     -10.352 -34.147  -5.020  1.00  0.00     0.082 H 
HETATM   66  C   LIG     1     -10.345 -30.962  -6.391  1.00  0.00    -0.051 C 
HETATM   67  H   LIG     1      -8.889 -32.373  -5.672  1.00  0.00     0.036 H 
HETATM   68  H   LIG     1      -9.941 -31.703  -4.420  1.00  0.00     0.036 H 
HETATM   69  H   LIG     1      -9.679 -30.105  -6.259  1.00  0.00     0.034 H 
HETATM   70  H   LIG     1     -11.345 -30.609  -6.107  1.00  0.00     0.034 H 
HETATM   71  H   LIG     1     -10.783 -30.606  -8.461  1.00  0.00     0.054 H 
BRANCH  61  72
HETATM   72  O   LIG     1     -12.064 -33.081  -4.885  1.00  0.00    -0.396 OA
HETATM   73  H   LIG     1     -12.495 -32.307  -5.275  1.00  0.00     0.210 HD
ENDBRANCH  61  72
ENDBRANCH  53  56
ENDBRANCH  49  52
ENDBRANCH  46  49
ENDBRANCH   3  46
TORSDOF 11
ENDMDL
