MODEL 1
REMARK minimizedAffinity -8.01721287
REMARK minimizedRMSD -1
REMARK  13 active torsions:
REMARK  status: ('A' for Active; 'I' for Inactive)
REMARK    1  A    between atoms: N_1  and  S_2 
REMARK    2  A    between atoms: S_2  and  C_5 
REMARK    3  A    between atoms: C_8  and  C_9 
REMARK    4  A    between atoms: C_9  and  C_10 
REMARK    5  A    between atoms: C_14  and  N_15 
REMARK       I    between atoms: N_15  and  C_16 
REMARK       I    between atoms: C_16  and  N_18 
REMARK    6  A    between atoms: N_18  and  C_19 
REMARK    7  A    between atoms: C_20  and  C_25 
REMARK    8  A    between atoms: C_25  and  C_27 
REMARK    9  A    between atoms: C_25  and  C_38 
REMARK   10  A    between atoms: C_27  and  N_28 
REMARK       I    between atoms: N_28  and  C_29 
REMARK   11  A    between atoms: C_29  and  C_31 
REMARK   12  A    between atoms: C_34  and  O_35 
REMARK   13  A    between atoms: C_38  and  C_39 
ROOT
HETATM    1  C   LIG     1      -8.610 -22.599  -0.274  1.00  0.00     0.060 A 
HETATM    2  C   LIG     1      -9.065 -21.272  -0.344  1.00  0.00    -0.023 A 
HETATM    3  C   LIG     1      -8.314 -20.314   0.357  1.00  0.00    -0.057 A 
HETATM    4  C   LIG     1      -7.170 -20.682   1.044  1.00  0.00     0.002 A 
HETATM    5  N   LIG     1      -6.756 -21.952   1.166  1.00  0.00    -0.271 NA
HETATM    6  C   LIG     1      -7.482 -22.881   0.510  1.00  0.00     0.028 A 
HETATM    7  H   LIG     1      -8.576 -19.262   0.342  1.00  0.00     0.086 H 
HETATM    8  H   LIG     1      -6.539 -19.931   1.510  1.00  0.00     0.114 H 
HETATM    9  H   LIG     1      -7.123 -23.899   0.640  1.00  0.00     0.118 H 
ENDROOT
BRANCH   2  10
HETATM   10  C   LIG     1     -10.309 -20.821  -1.124  1.00  0.00    -0.011 C 
HETATM   11  H   LIG     1     -10.408 -19.736  -0.976  1.00  0.00     0.050 H 
BRANCH  10  12
HETATM   12  C   LIG     1     -10.207 -21.048  -2.665  1.00  0.00     0.002 C 
HETATM   13  H   LIG     1      -9.326 -21.664  -2.886  1.00  0.00     0.065 H 
HETATM   14  H   LIG     1     -10.055 -20.087  -3.173  1.00  0.00     0.065 H 
BRANCH  12  15
HETATM   15  N   LIG     1     -11.355 -21.725  -3.270  1.00  0.00    -0.360 N 
HETATM   16  C   LIG     1     -11.331 -23.052  -3.676  1.00  0.00     0.221 C 
HETATM   17  O   LIG     1     -10.316 -23.739  -3.677  1.00  0.00    -0.273 OA
HETATM   18  H   LIG     1     -12.267 -21.345  -3.060  1.00  0.00     0.162 HD
BRANCH  16  19
HETATM   19  C   LIG     1     -12.720 -23.599  -4.065  1.00  0.00     0.024 C 
HETATM   20  C   LIG     1     -12.681 -25.007  -4.693  1.00  0.00    -0.051 C 
HETATM   21  C   LIG     1     -12.781 -26.182  -3.713  1.00  0.00    -0.040 C 
HETATM   22  H   LIG     1     -11.781 -25.148  -5.303  1.00  0.00     0.034 H 
HETATM   23  H   LIG     1     -13.530 -25.084  -5.384  1.00  0.00     0.034 H 
HETATM   24  C   LIG     1     -13.871 -25.983  -2.666  1.00  0.00     0.035 C 
HETATM   25  H   LIG     1     -11.814 -26.343  -3.223  1.00  0.00     0.036 H 
HETATM   26  H   LIG     1     -13.001 -27.087  -4.296  1.00  0.00     0.036 H 
HETATM   27  C   LIG     1     -13.684 -24.652  -1.946  1.00  0.00    -0.040 C 
HETATM   28  H   LIG     1     -13.855 -26.809  -1.947  1.00  0.00     0.082 H 
HETATM   29  C   LIG     1     -13.747 -23.482  -2.928  1.00  0.00    -0.051 C 
HETATM   30  H   LIG     1     -12.726 -24.645  -1.415  1.00  0.00     0.036 H 
HETATM   31  H   LIG     1     -14.474 -24.523  -1.196  1.00  0.00     0.036 H 
HETATM   32  H   LIG     1     -13.627 -22.540  -2.381  1.00  0.00     0.034 H 
HETATM   33  H   LIG     1     -14.754 -23.445  -3.367  1.00  0.00     0.034 H 
HETATM   34  H   LIG     1     -13.064 -22.910  -4.851  1.00  0.00     0.054 H 
BRANCH  24  35
HETATM   35  O   LIG     1     -15.134 -26.014  -3.330  1.00  0.00    -0.396 OA
HETATM   36  H   LIG     1     -15.792 -25.600  -2.745  1.00  0.00     0.210 HD
ENDBRANCH  24  35
ENDBRANCH  16  19
ENDBRANCH  12  15
ENDBRANCH  10  12
BRANCH  10  37
HETATM   37  C   LIG     1     -11.625 -21.433  -0.556  1.00  0.00    -0.053 C 
HETATM   38  H   LIG     1     -11.420 -22.070   0.314  1.00  0.00     0.034 H 
HETATM   39  H   LIG     1     -12.084 -22.095  -1.298  1.00  0.00     0.034 H 
BRANCH  37  40
HETATM   40  C   LIG     1     -12.620 -20.353  -0.200  1.00  0.00    -0.053 A 
HETATM   41  C   LIG     1     -13.387 -19.625  -1.269  1.00  0.00    -0.061 A 
HETATM   42  C   LIG     1     -14.094 -20.613  -0.387  1.00  0.00    -0.061 A 
HETATM   43  H   LIG     1     -13.186 -19.889  -2.300  1.00  0.00     0.033 H 
HETATM   44  H   LIG     1     -13.609 -18.575  -1.113  1.00  0.00     0.033 H 
HETATM   45  H   LIG     1     -14.414 -21.546  -0.836  1.00  0.00     0.033 H 
HETATM   46  H   LIG     1     -14.761 -20.255   0.390  1.00  0.00     0.033 H 
HETATM   47  H   LIG     1     -12.304 -19.753   0.646  1.00  0.00     0.040 H 
ENDBRANCH  37  40
ENDBRANCH  10  37
ENDBRANCH   2  10
BRANCH   1  48
HETATM   48  N   LIG     1      -9.278 -23.649  -0.930  1.00  0.00    -0.307 N 
HETATM   49  C   LIG     1     -10.018 -24.633  -0.307  1.00  0.00     0.325 C 
HETATM   50  N   LIG     1     -10.312 -24.370   1.015  1.00  0.00    -0.309 N 
HETATM   51  O   LIG     1     -10.402 -25.606  -0.950  1.00  0.00    -0.247 OA
HETATM   52  H   LIG     1     -10.282 -23.397   1.280  1.00  0.00     0.170 HD
HETATM   53  H   LIG     1      -8.887 -23.967  -1.814  1.00  0.00     0.170 HD
BRANCH  50  54
HETATM   54  C   LIG     1     -11.097 -25.213   1.810  1.00  0.00     0.036 A 
HETATM   55  C   LIG     1     -10.640 -25.636   3.055  1.00  0.00    -0.057 A 
HETATM   56  C   LIG     1     -11.433 -26.474   3.832  1.00  0.00    -0.080 A 
HETATM   57  H   LIG     1      -9.682 -25.293   3.438  1.00  0.00     0.086 H 
HETATM   58  C   LIG     1     -12.674 -26.900   3.356  1.00  0.00    -0.076 A 
HETATM   59  H   LIG     1     -11.080 -26.802   4.805  1.00  0.00     0.083 H 
HETATM   60  C   LIG     1     -13.165 -26.452   2.121  1.00  0.00    -0.052 A 
HETATM   61  H   LIG     1     -13.260 -27.589   3.960  1.00  0.00     0.084 H 
HETATM   62  C   LIG     1     -12.369 -25.583   1.357  1.00  0.00    -0.051 A 
HETATM   63  H   LIG     1     -12.715 -25.249   0.382  1.00  0.00     0.087 H 
BRANCH  60  64
HETATM   64  C   LIG     1     -14.514 -26.926   1.630  1.00  0.00    -0.017 C 
HETATM   65  H   LIG     1     -15.080 -27.341   2.477  1.00  0.00     0.047 H 
HETATM   66  H   LIG     1     -15.110 -26.066   1.297  1.00  0.00     0.047 H 
BRANCH  64  67
HETATM   67  C   LIG     1     -14.454 -27.953   0.522  1.00  0.00    -0.054 A 
HETATM   68  C   LIG     1     -15.605 -28.253  -0.223  1.00  0.00    -0.075 A 
HETATM   69  C   LIG     1     -15.561 -29.190  -1.260  1.00  0.00    -0.060 A 
HETATM   70  H   LIG     1     -16.544 -27.751  -0.003  1.00  0.00     0.084 H 
HETATM   71  C   LIG     1     -14.357 -29.829  -1.557  1.00  0.00     0.074 A 
HETATM   72  H   LIG     1     -16.462 -29.396  -1.832  1.00  0.00     0.085 H 
HETATM   73  C   LIG     1     -13.203 -29.550  -0.822  1.00  0.00    -0.060 A 
HETATM   74  C   LIG     1     -13.253 -28.614   0.214  1.00  0.00    -0.075 A 
HETATM   75  H   LIG     1     -12.265 -30.047  -1.059  1.00  0.00     0.085 H 
HETATM   76  H   LIG     1     -12.346 -28.398   0.775  1.00  0.00     0.084 H 
BRANCH  71  77
HETATM   77  S   LIG     1     -14.269 -30.951  -2.920  1.00  0.00     0.239 S 
HETATM   78  O   LIG     1     -14.096 -30.169  -4.144  1.00  0.00    -0.206 OA
HETATM   79  O   LIG     1     -15.266 -31.961  -2.789  1.00  0.00    -0.206 OA
BRANCH  77  80
HETATM   80  N   LIG     1     -12.797 -31.728  -2.679  1.00  0.00    -0.225 NA
HETATM   81  H   LIG     1     -12.178 -31.540  -3.465  1.00  0.00     0.136 HD
HETATM   82  H   LIG     1     -12.971 -32.724  -2.528  1.00  0.00     0.136 HD
ENDBRANCH  77  80
ENDBRANCH  71  77
ENDBRANCH  64  67
ENDBRANCH  60  64
ENDBRANCH  50  54
ENDBRANCH   1  48
TORSDOF 13
ENDMDL
MODEL 2
REMARK minimizedAffinity -7.16028452
REMARK minimizedRMSD -1
REMARK  13 active torsions:
REMARK  status: ('A' for Active; 'I' for Inactive)
REMARK    1  A    between atoms: N_1  and  S_2 
REMARK    2  A    between atoms: S_2  and  C_5 
REMARK    3  A    between atoms: C_8  and  C_9 
REMARK    4  A    between atoms: C_9  and  C_10 
REMARK    5  A    between atoms: C_14  and  N_15 
REMARK       I    between atoms: N_15  and  C_16 
REMARK       I    between atoms: C_16  and  N_18 
REMARK    6  A    between atoms: N_18  and  C_19 
REMARK    7  A    between atoms: C_20  and  C_25 
REMARK    8  A    between atoms: C_25  and  C_27 
REMARK    9  A    between atoms: C_25  and  C_38 
REMARK   10  A    between atoms: C_27  and  N_28 
REMARK       I    between atoms: N_28  and  C_29 
REMARK   11  A    between atoms: C_29  and  C_31 
REMARK   12  A    between atoms: C_34  and  O_35 
REMARK   13  A    between atoms: C_38  and  C_39 
ROOT
HETATM    1  C   LIG     1     -14.164 -20.182  -1.030  1.00  0.00     0.060 A 
HETATM    2  C   LIG     1     -13.530 -19.452  -2.050  1.00  0.00    -0.023 A 
HETATM    3  C   LIG     1     -12.262 -18.927  -1.749  1.00  0.00    -0.057 A 
HETATM    4  C   LIG     1     -11.678 -19.160  -0.517  1.00  0.00     0.002 A 
HETATM    5  N   LIG     1     -12.295 -19.806   0.485  1.00  0.00    -0.271 NA
HETATM    6  C   LIG     1     -13.520 -20.299   0.210  1.00  0.00     0.028 A 
HETATM    7  H   LIG     1     -11.689 -18.370  -2.481  1.00  0.00     0.086 H 
HETATM    8  H   LIG     1     -10.663 -18.833  -0.314  1.00  0.00     0.114 H 
HETATM    9  H   LIG     1     -13.993 -20.807   1.047  1.00  0.00     0.118 H 
ENDROOT
BRANCH   2  10
HETATM   10  C   LIG     1     -14.132 -19.203  -3.441  1.00  0.00    -0.011 C 
HETATM   11  H   LIG     1     -13.524 -18.422  -3.921  1.00  0.00     0.050 H 
BRANCH  10  12
HETATM   12  C   LIG     1     -14.080 -20.444  -4.385  1.00  0.00     0.002 C 
HETATM   13  H   LIG     1     -13.299 -20.295  -5.141  1.00  0.00     0.065 H 
HETATM   14  H   LIG     1     -15.030 -20.540  -4.927  1.00  0.00     0.065 H 
BRANCH  12  15
HETATM   15  N   LIG     1     -13.786 -21.716  -3.723  1.00  0.00    -0.360 N 
HETATM   16  C   LIG     1     -12.682 -22.499  -4.030  1.00  0.00     0.221 C 
HETATM   17  O   LIG     1     -11.923 -22.259  -4.963  1.00  0.00    -0.273 OA
HETATM   18  H   LIG     1     -14.175 -21.846  -2.799  1.00  0.00     0.162 HD
BRANCH  16  19
HETATM   19  C   LIG     1     -12.464 -23.665  -3.044  1.00  0.00     0.024 C 
HETATM   20  C   LIG     1     -13.127 -24.985  -3.485  1.00  0.00    -0.051 C 
HETATM   21  C   LIG     1     -12.271 -25.908  -4.360  1.00  0.00    -0.040 C 
HETATM   22  H   LIG     1     -14.073 -24.803  -4.008  1.00  0.00     0.034 H 
HETATM   23  H   LIG     1     -13.386 -25.544  -2.577  1.00  0.00     0.034 H 
HETATM   24  C   LIG     1     -10.846 -26.056  -3.838  1.00  0.00     0.035 C 
HETATM   25  H   LIG     1     -12.257 -25.538  -5.392  1.00  0.00     0.036 H 
HETATM   26  H   LIG     1     -12.753 -26.895  -4.379  1.00  0.00     0.036 H 
HETATM   27  C   LIG     1     -10.201 -24.687  -3.648  1.00  0.00    -0.040 C 
HETATM   28  H   LIG     1     -10.254 -26.661  -4.533  1.00  0.00     0.082 H 
HETATM   29  C   LIG     1     -10.990 -23.843  -2.648  1.00  0.00    -0.051 C 
HETATM   30  H   LIG     1     -10.137 -24.166  -4.610  1.00  0.00     0.036 H 
HETATM   31  H   LIG     1      -9.178 -24.809  -3.274  1.00  0.00     0.036 H 
HETATM   32  H   LIG     1     -10.495 -22.873  -2.519  1.00  0.00     0.034 H 
HETATM   33  H   LIG     1     -10.948 -24.331  -1.664  1.00  0.00     0.034 H 
HETATM   34  H   LIG     1     -12.983 -23.338  -2.131  1.00  0.00     0.054 H 
BRANCH  24  35
HETATM   35  O   LIG     1     -10.899 -26.755  -2.595  1.00  0.00    -0.396 OA
HETATM   36  H   LIG     1     -10.064 -26.594  -2.123  1.00  0.00     0.210 HD
ENDBRANCH  24  35
ENDBRANCH  16  19
ENDBRANCH  12  15
ENDBRANCH  10  12
BRANCH  10  37
HETATM   37  C   LIG     1     -15.572 -18.613  -3.372  1.00  0.00    -0.053 C 
HETATM   38  H   LIG     1     -15.605 -17.600  -3.795  1.00  0.00     0.034 H 
HETATM   39  H   LIG     1     -15.884 -18.501  -2.328  1.00  0.00     0.034 H 
BRANCH  37  40
HETATM   40  C   LIG     1     -16.565 -19.511  -4.072  1.00  0.00    -0.053 A 
HETATM   41  C   LIG     1     -17.887 -19.845  -3.439  1.00  0.00    -0.061 A 
HETATM   42  C   LIG     1     -17.840 -18.922  -4.621  1.00  0.00    -0.061 A 
HETATM   43  H   LIG     1     -18.092 -19.434  -2.458  1.00  0.00     0.033 H 
HETATM   44  H   LIG     1     -18.295 -20.836  -3.601  1.00  0.00     0.033 H 
HETATM   45  H   LIG     1     -18.056 -17.874  -4.447  1.00  0.00     0.033 H 
HETATM   46  H   LIG     1     -18.171 -19.277  -5.591  1.00  0.00     0.033 H 
HETATM   47  H   LIG     1     -16.088 -20.316  -4.622  1.00  0.00     0.040 H 
ENDBRANCH  37  40
ENDBRANCH  10  37
ENDBRANCH   2  10
BRANCH   1  48
HETATM   48  N   LIG     1     -15.436 -20.755  -1.208  1.00  0.00    -0.307 N 
HETATM   49  C   LIG     1     -15.722 -22.102  -1.116  1.00  0.00     0.325 C 
HETATM   50  N   LIG     1     -14.717 -22.857  -0.546  1.00  0.00    -0.309 N 
HETATM   51  O   LIG     1     -16.820 -22.518  -1.474  1.00  0.00    -0.247 OA
HETATM   52  H   LIG     1     -14.073 -22.348   0.041  1.00  0.00     0.170 HD
HETATM   53  H   LIG     1     -16.081 -20.269  -1.828  1.00  0.00     0.170 HD
BRANCH  50  54
HETATM   54  C   LIG     1     -14.828 -24.232  -0.312  1.00  0.00     0.036 A 
HETATM   55  C   LIG     1     -15.897 -24.953  -0.837  1.00  0.00    -0.057 A 
HETATM   56  C   LIG     1     -15.993 -26.319  -0.594  1.00  0.00    -0.080 A 
HETATM   57  H   LIG     1     -16.641 -24.463  -1.460  1.00  0.00     0.086 H 
HETATM   58  C   LIG     1     -15.029 -26.959   0.187  1.00  0.00    -0.076 A 
HETATM   59  H   LIG     1     -16.824 -26.883  -1.006  1.00  0.00     0.083 H 
HETATM   60  C   LIG     1     -13.926 -26.254   0.690  1.00  0.00    -0.052 A 
HETATM   61  H   LIG     1     -15.144 -28.018   0.400  1.00  0.00     0.084 H 
HETATM   62  C   LIG     1     -13.823 -24.881   0.415  1.00  0.00    -0.051 A 
HETATM   63  H   LIG     1     -12.994 -24.308   0.823  1.00  0.00     0.087 H 
BRANCH  60  64
HETATM   64  C   LIG     1     -12.893 -26.972   1.531  1.00  0.00    -0.017 C 
HETATM   65  H   LIG     1     -13.305 -27.148   2.534  1.00  0.00     0.047 H 
HETATM   66  H   LIG     1     -12.721 -27.978   1.125  1.00  0.00     0.047 H 
BRANCH  64  67
HETATM   67  C   LIG     1     -11.571 -26.249   1.654  1.00  0.00    -0.054 A 
HETATM   68  C   LIG     1     -10.863 -25.874   0.502  1.00  0.00    -0.075 A 
HETATM   69  C   LIG     1      -9.646 -25.194   0.600  1.00  0.00    -0.060 A 
HETATM   70  H   LIG     1     -11.261 -26.107  -0.483  1.00  0.00     0.084 H 
HETATM   71  C   LIG     1      -9.135 -24.880   1.860  1.00  0.00     0.074 A 
HETATM   72  H   LIG     1      -9.123 -24.901  -0.306  1.00  0.00     0.085 H 
HETATM   73  C   LIG     1      -9.821 -25.252   3.019  1.00  0.00    -0.060 A 
HETATM   74  C   LIG     1     -11.035 -25.933   2.915  1.00  0.00    -0.075 A 
HETATM   75  H   LIG     1      -9.421 -25.003   3.999  1.00  0.00     0.085 H 
HETATM   76  H   LIG     1     -11.566 -26.211   3.823  1.00  0.00     0.084 H 
BRANCH  71  77
HETATM   77  S   LIG     1      -7.641 -23.945   1.997  1.00  0.00     0.239 S 
HETATM   78  O   LIG     1      -7.762 -22.766   1.139  1.00  0.00    -0.206 OA
HETATM   79  O   LIG     1      -6.513 -24.814   1.953  1.00  0.00    -0.206 OA
BRANCH  77  80
HETATM   80  N   LIG     1      -7.704 -23.355   3.571  1.00  0.00    -0.225 NA
HETATM   81  H   LIG     1      -7.727 -22.337   3.554  1.00  0.00     0.136 HD
HETATM   82  H   LIG     1      -6.914 -23.735   4.096  1.00  0.00     0.136 HD
ENDBRANCH  77  80
ENDBRANCH  71  77
ENDBRANCH  64  67
ENDBRANCH  60  64
ENDBRANCH  50  54
ENDBRANCH   1  48
TORSDOF 13
ENDMDL
MODEL 3
REMARK minimizedAffinity -6.30417395
REMARK minimizedRMSD -1
REMARK  13 active torsions:
REMARK  status: ('A' for Active; 'I' for Inactive)
REMARK    1  A    between atoms: N_1  and  S_2 
REMARK    2  A    between atoms: S_2  and  C_5 
REMARK    3  A    between atoms: C_8  and  C_9 
REMARK    4  A    between atoms: C_9  and  C_10 
REMARK    5  A    between atoms: C_14  and  N_15 
REMARK       I    between atoms: N_15  and  C_16 
REMARK       I    between atoms: C_16  and  N_18 
REMARK    6  A    between atoms: N_18  and  C_19 
REMARK    7  A    between atoms: C_20  and  C_25 
REMARK    8  A    between atoms: C_25  and  C_27 
REMARK    9  A    between atoms: C_25  and  C_38 
REMARK   10  A    between atoms: C_27  and  N_28 
REMARK       I    between atoms: N_28  and  C_29 
REMARK   11  A    between atoms: C_29  and  C_31 
REMARK   12  A    between atoms: C_34  and  O_35 
REMARK   13  A    between atoms: C_38  and  C_39 
ROOT
HETATM    1  C   LIG     1     -14.008 -20.135  -0.888  1.00  0.00     0.060 A 
HETATM    2  C   LIG     1     -13.261 -19.421  -1.841  1.00  0.00    -0.023 A 
HETATM    3  C   LIG     1     -11.980 -19.000  -1.445  1.00  0.00    -0.057 A 
HETATM    4  C   LIG     1     -11.493 -19.314  -0.189  1.00  0.00     0.002 A 
HETATM    5  N   LIG     1     -12.216 -19.944   0.749  1.00  0.00    -0.271 NA
HETATM    6  C   LIG     1     -13.453 -20.338   0.383  1.00  0.00     0.028 A 
HETATM    7  H   LIG     1     -11.324 -18.463  -2.121  1.00  0.00     0.086 H 
HETATM    8  H   LIG     1     -10.471 -19.068   0.086  1.00  0.00     0.114 H 
HETATM    9  H   LIG     1     -14.013 -20.836   1.172  1.00  0.00     0.118 H 
ENDROOT
BRANCH   2  10
HETATM   10  C   LIG     1     -13.755 -19.085  -3.256  1.00  0.00    -0.011 C 
HETATM   11  H   LIG     1     -13.209 -18.188  -3.584  1.00  0.00     0.050 H 
BRANCH  10  12
HETATM   12  C   LIG     1     -13.455 -20.193  -4.312  1.00  0.00     0.002 C 
HETATM   13  H   LIG     1     -13.136 -19.726  -5.252  1.00  0.00     0.065 H 
HETATM   14  H   LIG     1     -14.372 -20.754  -4.534  1.00  0.00     0.065 H 
BRANCH  12  15
HETATM   15  N   LIG     1     -12.404 -21.140  -3.936  1.00  0.00    -0.360 N 
HETATM   16  C   LIG     1     -12.645 -22.481  -3.667  1.00  0.00     0.221 C 
HETATM   17  O   LIG     1     -13.770 -22.965  -3.602  1.00  0.00    -0.273 OA
HETATM   18  H   LIG     1     -11.463 -20.912  -4.225  1.00  0.00     0.162 HD
BRANCH  16  19
HETATM   19  C   LIG     1     -11.358 -23.318  -3.523  1.00  0.00     0.024 C 
HETATM   20  C   LIG     1     -10.061 -22.500  -3.689  1.00  0.00    -0.051 C 
HETATM   21  C   LIG     1      -9.489 -21.880  -2.409  1.00  0.00    -0.040 C 
HETATM   22  H   LIG     1     -10.184 -21.701  -4.428  1.00  0.00     0.034 H 
HETATM   23  H   LIG     1      -9.296 -23.174  -4.096  1.00  0.00     0.034 H 
HETATM   24  C   LIG     1      -9.480 -22.856  -1.237  1.00  0.00     0.035 C 
HETATM   25  H   LIG     1     -10.057 -20.980  -2.144  1.00  0.00     0.036 H 
HETATM   26  H   LIG     1      -8.460 -21.561  -2.621  1.00  0.00     0.036 H 
HETATM   27  C   LIG     1     -10.871 -23.442  -1.017  1.00  0.00    -0.040 C 
HETATM   28  H   LIG     1      -9.135 -22.348  -0.330  1.00  0.00     0.082 H 
HETATM   29  C   LIG     1     -11.353 -24.192  -2.258  1.00  0.00    -0.051 C 
HETATM   30  H   LIG     1     -11.578 -22.644  -0.763  1.00  0.00     0.036 H 
HETATM   31  H   LIG     1     -10.849 -24.140  -0.172  1.00  0.00     0.036 H 
HETATM   32  H   LIG     1     -12.346 -24.615  -2.066  1.00  0.00     0.034 H 
HETATM   33  H   LIG     1     -10.691 -25.053  -2.430  1.00  0.00     0.034 H 
HETATM   34  H   LIG     1     -11.403 -24.018  -4.371  1.00  0.00     0.054 H 
BRANCH  24  35
HETATM   35  O   LIG     1      -8.546 -23.894  -1.532  1.00  0.00    -0.396 OA
HETATM   36  H   LIG     1      -8.747 -24.652  -0.956  1.00  0.00     0.210 HD
ENDBRANCH  24  35
ENDBRANCH  16  19
ENDBRANCH  12  15
ENDBRANCH  10  12
BRANCH  10  37
HETATM   37  C   LIG     1     -15.259 -18.680  -3.283  1.00  0.00    -0.053 C 
HETATM   38  H   LIG     1     -15.381 -17.638  -3.607  1.00  0.00     0.034 H 
HETATM   39  H   LIG     1     -15.679 -18.720  -2.272  1.00  0.00     0.034 H 
BRANCH  37  40
HETATM   40  C   LIG     1     -16.059 -19.607  -4.167  1.00  0.00    -0.053 A 
HETATM   41  C   LIG     1     -17.538 -19.786  -3.963  1.00  0.00    -0.061 A 
HETATM   42  C   LIG     1     -17.038 -19.027  -5.157  1.00  0.00    -0.061 A 
HETATM   43  H   LIG     1     -18.002 -19.242  -3.150  1.00  0.00     0.033 H 
HETATM   44  H   LIG     1     -17.963 -20.767  -4.144  1.00  0.00     0.033 H 
HETATM   45  H   LIG     1     -17.201 -17.955  -5.173  1.00  0.00     0.033 H 
HETATM   46  H   LIG     1     -17.078 -19.486  -6.139  1.00  0.00     0.033 H 
HETATM   47  H   LIG     1     -15.509 -20.499  -4.447  1.00  0.00     0.040 H 
ENDBRANCH  37  40
ENDBRANCH  10  37
ENDBRANCH   2  10
BRANCH   1  48
HETATM   48  N   LIG     1     -15.303 -20.607  -1.163  1.00  0.00    -0.307 N 
HETATM   49  C   LIG     1     -15.668 -21.936  -1.228  1.00  0.00     0.325 C 
HETATM   50  N   LIG     1     -14.728 -22.808  -0.718  1.00  0.00    -0.309 N 
HETATM   51  O   LIG     1     -16.776 -22.244  -1.659  1.00  0.00    -0.247 OA
HETATM   52  H   LIG     1     -14.077 -22.405  -0.061  1.00  0.00     0.170 HD
HETATM   53  H   LIG     1     -15.898 -20.019  -1.743  1.00  0.00     0.170 HD
BRANCH  50  54
HETATM   54  C   LIG     1     -14.925 -24.192  -0.640  1.00  0.00     0.036 A 
HETATM   55  C   LIG     1     -15.251 -24.790   0.575  1.00  0.00    -0.057 A 
HETATM   56  C   LIG     1     -15.443 -26.166   0.635  1.00  0.00    -0.080 A 
HETATM   57  H   LIG     1     -15.387 -24.187   1.469  1.00  0.00     0.086 H 
HETATM   58  C   LIG     1     -15.293 -26.943  -0.515  1.00  0.00    -0.076 A 
HETATM   59  H   LIG     1     -15.702 -26.634   1.580  1.00  0.00     0.083 H 
HETATM   60  C   LIG     1     -15.002 -26.350  -1.753  1.00  0.00    -0.052 A 
HETATM   61  H   LIG     1     -15.406 -28.021  -0.439  1.00  0.00     0.084 H 
HETATM   62  C   LIG     1     -14.839 -24.957  -1.808  1.00  0.00    -0.051 A 
HETATM   63  H   LIG     1     -14.581 -24.480  -2.751  1.00  0.00     0.087 H 
BRANCH  60  64
HETATM   64  C   LIG     1     -14.849 -27.215  -2.984  1.00  0.00    -0.017 C 
HETATM   65  H   LIG     1     -15.046 -28.262  -2.715  1.00  0.00     0.047 H 
HETATM   66  H   LIG     1     -15.633 -26.966  -3.711  1.00  0.00     0.047 H 
BRANCH  64  67
HETATM   67  C   LIG     1     -13.496 -27.120  -3.653  1.00  0.00    -0.054 A 
HETATM   68  C   LIG     1     -13.333 -26.328  -4.800  1.00  0.00    -0.075 A 
HETATM   69  C   LIG     1     -12.085 -26.219  -5.422  1.00  0.00    -0.060 A 
HETATM   70  H   LIG     1     -14.179 -25.784  -5.213  1.00  0.00     0.084 H 
HETATM   71  C   LIG     1     -10.991 -26.904  -4.890  1.00  0.00     0.074 A 
HETATM   72  H   LIG     1     -11.979 -25.589  -6.301  1.00  0.00     0.085 H 
HETATM   73  C   LIG     1     -11.136 -27.703  -3.754  1.00  0.00    -0.060 A 
HETATM   74  C   LIG     1     -12.385 -27.809  -3.138  1.00  0.00    -0.075 A 
HETATM   75  H   LIG     1     -10.280 -28.232  -3.341  1.00  0.00     0.085 H 
HETATM   76  H   LIG     1     -12.485 -28.428  -2.249  1.00  0.00     0.084 H 
BRANCH  71  77
HETATM   77  S   LIG     1      -9.392 -26.706  -5.616  1.00  0.00     0.239 S 
HETATM   78  O   LIG     1      -8.631 -25.765  -4.794  1.00  0.00    -0.206 OA
HETATM   79  O   LIG     1      -9.509 -26.569  -7.030  1.00  0.00    -0.206 OA
BRANCH  77  80
HETATM   80  N   LIG     1      -8.670 -28.203  -5.360  1.00  0.00    -0.225 NA
HETATM   81  H   LIG     1      -7.845 -28.090  -4.774  1.00  0.00     0.136 HD
HETATM   82  H   LIG     1      -8.468 -28.631  -6.267  1.00  0.00     0.136 HD
ENDBRANCH  77  80
ENDBRANCH  71  77
ENDBRANCH  64  67
ENDBRANCH  60  64
ENDBRANCH  50  54
ENDBRANCH   1  48
TORSDOF 13
ENDMDL
MODEL 4
REMARK minimizedAffinity -5.88804007
REMARK minimizedRMSD -1
REMARK  13 active torsions:
REMARK  status: ('A' for Active; 'I' for Inactive)
REMARK    1  A    between atoms: N_1  and  S_2 
REMARK    2  A    between atoms: S_2  and  C_5 
REMARK    3  A    between atoms: C_8  and  C_9 
REMARK    4  A    between atoms: C_9  and  C_10 
REMARK    5  A    between atoms: C_14  and  N_15 
REMARK       I    between atoms: N_15  and  C_16 
REMARK       I    between atoms: C_16  and  N_18 
REMARK    6  A    between atoms: N_18  and  C_19 
REMARK    7  A    between atoms: C_20  and  C_25 
REMARK    8  A    between atoms: C_25  and  C_27 
REMARK    9  A    between atoms: C_25  and  C_38 
REMARK   10  A    between atoms: C_27  and  N_28 
REMARK       I    between atoms: N_28  and  C_29 
REMARK   11  A    between atoms: C_29  and  C_31 
REMARK   12  A    between atoms: C_34  and  O_35 
REMARK   13  A    between atoms: C_38  and  C_39 
ROOT
HETATM    1  C   LIG     1     -11.292 -24.874  -1.701  1.00  0.00     0.060 A 
HETATM    2  C   LIG     1     -10.130 -24.309  -2.254  1.00  0.00    -0.023 A 
HETATM    3  C   LIG     1      -9.112 -23.962  -1.350  1.00  0.00    -0.057 A 
HETATM    4  C   LIG     1      -9.259 -24.208   0.004  1.00  0.00     0.002 A 
HETATM    5  N   LIG     1     -10.384 -24.694   0.550  1.00  0.00    -0.271 NA
HETATM    6  C   LIG     1     -11.373 -25.014  -0.309  1.00  0.00     0.028 A 
HETATM    7  H   LIG     1      -8.171 -23.541  -1.687  1.00  0.00     0.086 H 
HETATM    8  H   LIG     1      -8.439 -24.024   0.692  1.00  0.00     0.114 H 
HETATM    9  H   LIG     1     -12.272 -25.395   0.170  1.00  0.00     0.118 H 
ENDROOT
BRANCH   2  10
HETATM   10  C   LIG     1      -9.918 -24.054  -3.753  1.00  0.00    -0.011 C 
HETATM   11  H   LIG     1     -10.628 -24.696  -4.295  1.00  0.00     0.050 H 
BRANCH  10  12
HETATM   12  C   LIG     1     -10.224 -22.589  -4.197  1.00  0.00     0.002 C 
HETATM   13  H   LIG     1     -11.243 -22.535  -4.598  1.00  0.00     0.065 H 
HETATM   14  H   LIG     1      -9.548 -22.297  -5.010  1.00  0.00     0.065 H 
BRANCH  12  15
HETATM   15  N   LIG     1     -10.138 -21.588  -3.132  1.00  0.00    -0.360 N 
HETATM   16  C   LIG     1     -10.861 -20.403  -3.139  1.00  0.00     0.221 C 
HETATM   17  O   LIG     1     -11.541 -20.033  -4.090  1.00  0.00    -0.273 OA
HETATM   18  H   LIG     1      -9.840 -21.917  -2.224  1.00  0.00     0.162 HD
BRANCH  16  19
HETATM   19  C   LIG     1     -10.780 -19.628  -1.808  1.00  0.00     0.024 C 
HETATM   20  C   LIG     1     -11.975 -18.684  -1.564  1.00  0.00    -0.051 C 
HETATM   21  C   LIG     1     -13.176 -19.295  -0.833  1.00  0.00    -0.040 C 
HETATM   22  H   LIG     1     -12.334 -18.244  -2.501  1.00  0.00     0.034 H 
HETATM   23  H   LIG     1     -11.613 -17.845  -0.955  1.00  0.00     0.034 H 
HETATM   24  C   LIG     1     -12.765 -20.127   0.377  1.00  0.00     0.035 C 
HETATM   25  H   LIG     1     -13.764 -19.906  -1.527  1.00  0.00     0.036 H 
HETATM   26  H   LIG     1     -13.822 -18.471  -0.502  1.00  0.00     0.036 H 
HETATM   27  C   LIG     1     -11.740 -21.183  -0.023  1.00  0.00    -0.040 C 
HETATM   28  H   LIG     1     -13.646 -20.603   0.820  1.00  0.00     0.082 H 
HETATM   29  C   LIG     1     -10.484 -20.537  -0.604  1.00  0.00    -0.051 C 
HETATM   30  H   LIG     1     -12.179 -21.874  -0.752  1.00  0.00     0.036 H 
HETATM   31  H   LIG     1     -11.456 -21.774   0.856  1.00  0.00     0.036 H 
HETATM   32  H   LIG     1      -9.760 -21.317  -0.867  1.00  0.00     0.034 H 
HETATM   33  H   LIG     1     -10.002 -19.935   0.179  1.00  0.00     0.034 H 
HETATM   34  H   LIG     1      -9.891 -18.991  -1.928  1.00  0.00     0.054 H 
BRANCH  24  35
HETATM   35  O   LIG     1     -12.213 -19.246   1.354  1.00  0.00    -0.396 OA
HETATM   36  H   LIG     1     -11.690 -19.778   1.978  1.00  0.00     0.210 HD
ENDBRANCH  24  35
ENDBRANCH  16  19
ENDBRANCH  12  15
ENDBRANCH  10  12
BRANCH  10  37
HETATM   37  C   LIG     1      -8.508 -24.502  -4.242  1.00  0.00    -0.053 C 
HETATM   38  H   LIG     1      -8.586 -25.290  -5.003  1.00  0.00     0.034 H 
HETATM   39  H   LIG     1      -7.948 -24.952  -3.415  1.00  0.00     0.034 H 
BRANCH  37  40
HETATM   40  C   LIG     1      -7.715 -23.331  -4.773  1.00  0.00    -0.053 A 
HETATM   41  C   LIG     1      -6.260 -23.165  -4.434  1.00  0.00    -0.061 A 
HETATM   42  C   LIG     1      -6.659 -23.565  -5.824  1.00  0.00    -0.061 A 
HETATM   43  H   LIG     1      -5.809 -23.902  -3.782  1.00  0.00     0.033 H 
HETATM   44  H   LIG     1      -5.879 -22.158  -4.299  1.00  0.00     0.033 H 
HETATM   45  H   LIG     1      -6.439 -24.580  -6.135  1.00  0.00     0.033 H 
HETATM   46  H   LIG     1      -6.595 -22.842  -6.629  1.00  0.00     0.033 H 
HETATM   47  H   LIG     1      -8.298 -22.417  -4.820  1.00  0.00     0.040 H 
ENDBRANCH  37  40
ENDBRANCH  10  37
ENDBRANCH   2  10
BRANCH   1  48
HETATM   48  N   LIG     1     -12.382 -25.260  -2.502  1.00  0.00    -0.307 N 
HETATM   49  C   LIG     1     -13.564 -24.558  -2.629  1.00  0.00     0.325 C 
HETATM   50  N   LIG     1     -13.515 -23.272  -2.132  1.00  0.00    -0.309 N 
HETATM   51  O   LIG     1     -14.520 -25.073  -3.201  1.00  0.00    -0.247 OA
HETATM   52  H   LIG     1     -12.592 -22.869  -2.065  1.00  0.00     0.170 HD
HETATM   53  H   LIG     1     -12.511 -26.257  -2.661  1.00  0.00     0.170 HD
BRANCH  50  54
HETATM   54  C   LIG     1     -14.588 -22.376  -2.212  1.00  0.00     0.036 A 
HETATM   55  C   LIG     1     -15.664 -22.484  -1.335  1.00  0.00    -0.057 A 
HETATM   56  C   LIG     1     -16.721 -21.586  -1.428  1.00  0.00    -0.080 A 
HETATM   57  H   LIG     1     -15.669 -23.246  -0.559  1.00  0.00     0.086 H 
HETATM   58  C   LIG     1     -16.709 -20.592  -2.408  1.00  0.00    -0.076 A 
HETATM   59  H   LIG     1     -17.559 -21.667  -0.742  1.00  0.00     0.083 H 
HETATM   60  C   LIG     1     -15.615 -20.447  -3.273  1.00  0.00    -0.052 A 
HETATM   61  H   LIG     1     -17.565 -19.927  -2.491  1.00  0.00     0.084 H 
HETATM   62  C   LIG     1     -14.539 -21.340  -3.152  1.00  0.00    -0.051 A 
HETATM   63  H   LIG     1     -13.695 -21.267  -3.834  1.00  0.00     0.087 H 
BRANCH  60  64
HETATM   64  C   LIG     1     -15.626 -19.359  -4.324  1.00  0.00    -0.017 C 
HETATM   65  H   LIG     1     -15.318 -18.410  -3.863  1.00  0.00     0.047 H 
HETATM   66  H   LIG     1     -14.852 -19.562  -5.076  1.00  0.00     0.047 H 
BRANCH  64  67
HETATM   67  C   LIG     1     -16.957 -19.167  -5.015  1.00  0.00    -0.054 A 
HETATM   68  C   LIG     1     -17.243 -19.865  -6.199  1.00  0.00    -0.075 A 
HETATM   69  C   LIG     1     -18.474 -19.708  -6.842  1.00  0.00    -0.060 A 
HETATM   70  H   LIG     1     -16.506 -20.542  -6.624  1.00  0.00     0.084 H 
HETATM   71  C   LIG     1     -19.429 -18.851  -6.295  1.00  0.00     0.074 A 
HETATM   72  H   LIG     1     -18.678 -20.270  -7.750  1.00  0.00     0.085 H 
HETATM   73  C   LIG     1     -19.161 -18.141  -5.122  1.00  0.00    -0.060 A 
HETATM   74  C   LIG     1     -17.929 -18.300  -4.485  1.00  0.00    -0.075 A 
HETATM   75  H   LIG     1     -19.910 -17.477  -4.697  1.00  0.00     0.085 H 
HETATM   76  H   LIG     1     -17.733 -17.750  -3.567  1.00  0.00     0.084 H 
BRANCH  71  77
HETATM   77  S   LIG     1     -21.021 -18.710  -7.051  1.00  0.00     0.239 S 
HETATM   78  O   LIG     1     -21.653 -20.029  -7.032  1.00  0.00    -0.206 OA
HETATM   79  O   LIG     1     -20.934 -17.917  -8.232  1.00  0.00    -0.206 OA
BRANCH  77  80
HETATM   80  N   LIG     1     -21.888 -17.787  -5.943  1.00  0.00    -0.225 NA
HETATM   81  H   LIG     1     -22.677 -18.325  -5.593  1.00  0.00     0.136 HD
HETATM   82  H   LIG     1     -22.161 -16.909  -6.390  1.00  0.00     0.136 HD
ENDBRANCH  77  80
ENDBRANCH  71  77
ENDBRANCH  64  67
ENDBRANCH  60  64
ENDBRANCH  50  54
ENDBRANCH   1  48
TORSDOF 13
ENDMDL
