MODEL 1
REMARK minimizedAffinity -6.64395571
REMARK minimizedRMSD -1
REMARK  13 active torsions:
REMARK  status: ('A' for Active; 'I' for Inactive)
REMARK    1  A    between atoms: N_1  and  S_2 
REMARK    2  A    between atoms: S_2  and  C_5 
REMARK    3  A    between atoms: C_8  and  C_9 
REMARK    4  A    between atoms: C_9  and  C_10 
REMARK    5  A    between atoms: C_14  and  N_15 
REMARK       I    between atoms: N_15  and  C_16 
REMARK    6  A    between atoms: C_16  and  C_18 
REMARK    7  A    between atoms: C_18  and  S_19 
REMARK    8  A    between atoms: C_18  and  C_20 
REMARK    9  A    between atoms: C_25  and  C_26 
REMARK   10  A    between atoms: C_26  and  C_27 
REMARK   11  A    between atoms: C_27  and  N_28 
REMARK       I    between atoms: N_28  and  C_29 
REMARK   12  A    between atoms: C_29  and  C_31 
REMARK   13  A    between atoms: C_35  and  O_37 
ROOT
HETATM    1  C   LIG     1     -10.447  11.475  64.762  1.00  0.00    -0.012 A 
HETATM    2  C   LIG     1     -11.269  11.444  63.627  1.00  0.00     0.010 A 
HETATM    3  N   LIG     1     -12.433  12.121  63.475  1.00  0.00    -0.272 NA
HETATM    4  C   LIG     1     -12.842  12.860  64.516  1.00  0.00     0.002 A 
HETATM    5  C   LIG     1     -12.148  12.935  65.708  1.00  0.00    -0.059 A 
HETATM    6  C   LIG     1     -10.935  12.232  65.855  1.00  0.00    -0.046 A 
HETATM    7  H   LIG     1     -11.009  10.855  62.749  1.00  0.00     0.115 H 
HETATM    8  H   LIG     1     -13.775  13.398  64.370  1.00  0.00     0.114 H 
HETATM    9  H   LIG     1     -12.557  13.536  66.517  1.00  0.00     0.086 H 
ENDROOT
BRANCH   1  10
HETATM   10  C   LIG     1      -9.119  10.720  64.773  1.00  0.00     0.093 C 
HETATM   11  H   LIG     1      -8.425  11.228  65.447  1.00  0.00     0.078 H 
BRANCH  10  12
HETATM   12  C   LIG     1      -9.222   9.231  65.152  1.00  0.00     0.240 C 
HETATM   13  N   LIG     1      -9.688   9.013  66.448  1.00  0.00    -0.326 N 
HETATM   14  H   LIG     1     -10.367   9.678  66.802  1.00  0.00     0.169 HD
HETATM   15  O   LIG     1      -8.849   8.337  64.393  1.00  0.00    -0.272 OA
BRANCH  13  16
HETATM   16  C   LIG     1      -9.773   7.711  66.984  1.00  0.00     0.035 A 
HETATM   17  C   LIG     1     -10.882   6.896  66.772  1.00  0.00    -0.057 A 
HETATM   18  C   LIG     1     -10.887   5.581  67.252  1.00  0.00    -0.080 A 
HETATM   19  H   LIG     1     -11.733   7.259  66.205  1.00  0.00     0.086 H 
HETATM   20  C   LIG     1      -9.814   5.101  68.003  1.00  0.00    -0.076 A 
HETATM   21  H   LIG     1     -11.737   4.933  67.055  1.00  0.00     0.083 H 
HETATM   22  C   LIG     1      -8.734   5.940  68.282  1.00  0.00    -0.052 A 
HETATM   23  H   LIG     1      -9.837   4.083  68.387  1.00  0.00     0.084 H 
HETATM   24  C   LIG     1      -8.702   7.222  67.720  1.00  0.00    -0.051 A 
HETATM   25  H   LIG     1      -7.856   7.861  67.933  1.00  0.00     0.087 H 
BRANCH  22  26
HETATM   26  C   LIG     1      -7.603   5.495  69.173  1.00  0.00    -0.017 C 
HETATM   27  H   LIG     1      -7.408   4.424  69.028  1.00  0.00     0.047 H 
HETATM   28  H   LIG     1      -6.682   5.997  68.852  1.00  0.00     0.047 H 
BRANCH  26  29
HETATM   29  C   LIG     1      -7.866   5.755  70.634  1.00  0.00    -0.054 A 
HETATM   30  C   LIG     1      -8.685   4.890  71.376  1.00  0.00    -0.075 A 
HETATM   31  C   LIG     1      -8.932   5.129  72.723  1.00  0.00    -0.060 A 
HETATM   32  H   LIG     1      -9.148   4.034  70.894  1.00  0.00     0.084 H 
HETATM   33  C   LIG     1      -8.363   6.244  73.329  1.00  0.00     0.074 A 
HETATM   34  H   LIG     1      -9.573   4.449  73.282  1.00  0.00     0.085 H 
HETATM   35  C   LIG     1      -7.542   7.120  72.612  1.00  0.00    -0.060 A 
HETATM   36  C   LIG     1      -7.298   6.869  71.259  1.00  0.00    -0.075 A 
HETATM   37  H   LIG     1      -7.103   7.990  73.081  1.00  0.00     0.085 H 
HETATM   38  H   LIG     1      -6.669   7.555  70.695  1.00  0.00     0.084 H 
BRANCH  33  39
HETATM   39  S   LIG     1      -8.633   6.547  75.046  1.00  0.00     0.239 S 
HETATM   40  O   LIG     1      -7.592   5.938  75.812  1.00  0.00    -0.206 OA
HETATM   41  O   LIG     1     -10.044   6.338  75.339  1.00  0.00    -0.206 OA
BRANCH  39  42
HETATM   42  N   LIG     1      -8.389   8.204  75.137  1.00  0.00    -0.225 NA
HETATM   43  H   LIG     1      -7.585   8.399  75.734  1.00  0.00     0.136 HD
HETATM   44  H   LIG     1      -9.246   8.675  75.417  1.00  0.00     0.136 HD
ENDBRANCH  39  42
ENDBRANCH  33  39
ENDBRANCH  26  29
ENDBRANCH  22  26
ENDBRANCH  13  16
ENDBRANCH  10  12
BRANCH  10  45
HETATM   45  S   LIG     1      -8.245  10.752  63.140  1.00  0.00    -0.163 SA
HETATM   46  H   LIG     1      -8.895   9.691  62.624  1.00  0.00     0.102 HD
ENDBRANCH  10  45
ENDBRANCH   1  10
BRANCH   6  47
HETATM   47  C   LIG     1     -10.273  12.307  67.215  1.00  0.00    -0.026 C 
HETATM   48  H   LIG     1      -9.486  13.075  67.190  1.00  0.00     0.042 H 
HETATM   49  H   LIG     1      -9.740  11.381  67.449  1.00  0.00     0.042 H 
BRANCH  47  50
HETATM   50  C   LIG     1     -11.281  12.664  68.313  1.00  0.00    -0.001 C 
HETATM   51  H   LIG     1     -12.306  12.568  67.940  1.00  0.00     0.064 H 
HETATM   52  H   LIG     1     -11.143  13.703  68.636  1.00  0.00     0.064 H 
BRANCH  50  53
HETATM   53  N   LIG     1     -11.091  11.846  69.499  1.00  0.00    -0.360 N 
HETATM   54  C   LIG     1     -11.521  10.542  69.586  1.00  0.00     0.221 C 
HETATM   55  O   LIG     1     -12.068   9.972  68.651  1.00  0.00    -0.273 OA
HETATM   56  H   LIG     1     -10.801  12.313  70.349  1.00  0.00     0.162 HD
BRANCH  54  57
HETATM   57  C   LIG     1     -11.296   9.880  70.948  1.00  0.00     0.024 C 
HETATM   58  H   LIG     1     -10.638  10.578  71.486  1.00  0.00     0.054 H 
HETATM   59  C   LIG     1     -12.598   9.784  71.763  1.00  0.00    -0.051 C 
HETATM   60  C   LIG     1     -13.472   8.571  71.446  1.00  0.00    -0.040 C 
HETATM   61  H   LIG     1     -13.205  10.689  71.624  1.00  0.00     0.034 H 
HETATM   62  H   LIG     1     -12.341   9.758  72.829  1.00  0.00     0.034 H 
HETATM   63  C   LIG     1     -12.708   7.258  71.393  1.00  0.00     0.035 C 
HETATM   64  H   LIG     1     -13.971   8.720  70.484  1.00  0.00     0.036 H 
HETATM   65  H   LIG     1     -14.254   8.512  72.215  1.00  0.00     0.036 H 
HETATM   66  H   LIG     1     -13.363   6.475  70.989  1.00  0.00     0.082 H 
HETATM   67  C   LIG     1     -11.464   7.349  70.518  1.00  0.00    -0.040 C 
HETATM   68  C   LIG     1     -10.559   8.540  70.827  1.00  0.00    -0.051 C 
HETATM   69  H   LIG     1     -11.771   7.407  69.469  1.00  0.00     0.036 H 
HETATM   70  H   LIG     1     -10.867   6.435  70.634  1.00  0.00     0.036 H 
HETATM   71  H   LIG     1      -9.795   8.576  70.042  1.00  0.00     0.034 H 
HETATM   72  H   LIG     1     -10.009   8.354  71.758  1.00  0.00     0.034 H 
BRANCH  63  73
HETATM   73  O   LIG     1     -12.339   6.862  72.708  1.00  0.00    -0.396 OA
HETATM   74  H   LIG     1     -13.161   6.776  73.225  1.00  0.00     0.210 HD
ENDBRANCH  63  73
ENDBRANCH  54  57
ENDBRANCH  50  53
ENDBRANCH  47  50
ENDBRANCH   6  47
TORSDOF 13
ENDMDL
MODEL 2
REMARK minimizedAffinity -6.09522772
REMARK minimizedRMSD -1
REMARK  13 active torsions:
REMARK  status: ('A' for Active; 'I' for Inactive)
REMARK    1  A    between atoms: N_1  and  S_2 
REMARK    2  A    between atoms: S_2  and  C_5 
REMARK    3  A    between atoms: C_8  and  C_9 
REMARK    4  A    between atoms: C_9  and  C_10 
REMARK    5  A    between atoms: C_14  and  N_15 
REMARK       I    between atoms: N_15  and  C_16 
REMARK    6  A    between atoms: C_16  and  C_18 
REMARK    7  A    between atoms: C_18  and  S_19 
REMARK    8  A    between atoms: C_18  and  C_20 
REMARK    9  A    between atoms: C_25  and  C_26 
REMARK   10  A    between atoms: C_26  and  C_27 
REMARK   11  A    between atoms: C_27  and  N_28 
REMARK       I    between atoms: N_28  and  C_29 
REMARK   12  A    between atoms: C_29  and  C_31 
REMARK   13  A    between atoms: C_35  and  O_37 
ROOT
HETATM    1  C   LIG     1      -4.911   5.256  65.932  1.00  0.00    -0.012 A 
HETATM    2  C   LIG     1      -5.514   4.796  64.753  1.00  0.00     0.010 A 
HETATM    3  N   LIG     1      -6.031   5.577  63.774  1.00  0.00    -0.272 NA
HETATM    4  C   LIG     1      -5.983   6.902  63.969  1.00  0.00     0.002 A 
HETATM    5  C   LIG     1      -5.460   7.479  65.111  1.00  0.00    -0.059 A 
HETATM    6  C   LIG     1      -4.919   6.659  66.121  1.00  0.00    -0.046 A 
HETATM    7  H   LIG     1      -5.601   3.734  64.532  1.00  0.00     0.115 H 
HETATM    8  H   LIG     1      -6.398   7.509  63.170  1.00  0.00     0.114 H 
HETATM    9  H   LIG     1      -5.480   8.561  65.209  1.00  0.00     0.086 H 
ENDROOT
BRANCH   1  10
HETATM   10  C   LIG     1      -4.301   4.264  66.922  1.00  0.00     0.093 C 
HETATM   11  H   LIG     1      -3.458   4.740  67.430  1.00  0.00     0.078 H 
BRANCH  10  12
HETATM   12  C   LIG     1      -5.285   3.697  67.962  1.00  0.00     0.240 C 
HETATM   13  N   LIG     1      -6.551   4.276  67.911  1.00  0.00    -0.326 N 
HETATM   14  H   LIG     1      -6.883   4.558  66.995  1.00  0.00     0.169 HD
HETATM   15  O   LIG     1      -4.939   2.864  68.800  1.00  0.00    -0.272 OA
BRANCH  13  16
HETATM   16  C   LIG     1      -7.552   3.927  68.842  1.00  0.00     0.035 A 
HETATM   17  C   LIG     1      -8.440   2.878  68.612  1.00  0.00    -0.057 A 
HETATM   18  C   LIG     1      -9.362   2.513  69.600  1.00  0.00    -0.080 A 
HETATM   19  H   LIG     1      -8.401   2.316  67.685  1.00  0.00     0.086 H 
HETATM   20  C   LIG     1      -9.446   3.237  70.789  1.00  0.00    -0.076 A 
HETATM   21  H   LIG     1     -10.030   1.671  69.436  1.00  0.00     0.083 H 
HETATM   22  C   LIG     1      -8.609   4.336  70.991  1.00  0.00    -0.052 A 
HETATM   23  H   LIG     1     -10.179   2.955  71.541  1.00  0.00     0.084 H 
HETATM   24  C   LIG     1      -7.630   4.634  70.034  1.00  0.00    -0.051 A 
HETATM   25  H   LIG     1      -6.980   5.480  70.204  1.00  0.00     0.087 H 
BRANCH  22  26
HETATM   26  C   LIG     1      -8.735   5.205  72.215  1.00  0.00    -0.017 C 
HETATM   27  H   LIG     1      -8.843   4.580  73.111  1.00  0.00     0.047 H 
HETATM   28  H   LIG     1      -7.792   5.748  72.361  1.00  0.00     0.047 H 
BRANCH  26  29
HETATM   29  C   LIG     1      -9.893   6.165  72.140  1.00  0.00    -0.054 A 
HETATM   30  C   LIG     1      -9.673   7.551  72.146  1.00  0.00    -0.075 A 
HETATM   31  C   LIG     1     -10.740   8.440  72.079  1.00  0.00    -0.060 A 
HETATM   32  H   LIG     1      -8.662   7.940  72.222  1.00  0.00     0.084 H 
HETATM   33  C   LIG     1     -12.036   7.938  72.014  1.00  0.00     0.074 A 
HETATM   34  H   LIG     1     -10.550   9.511  72.089  1.00  0.00     0.085 H 
HETATM   35  C   LIG     1     -12.283   6.562  72.005  1.00  0.00    -0.060 A 
HETATM   36  C   LIG     1     -11.202   5.677  72.070  1.00  0.00    -0.075 A 
HETATM   37  H   LIG     1     -13.290   6.171  71.960  1.00  0.00     0.085 H 
HETATM   38  H   LIG     1     -11.391   4.606  72.074  1.00  0.00     0.084 H 
BRANCH  33  39
HETATM   39  S   LIG     1     -13.404   9.046  71.893  1.00  0.00     0.239 S 
HETATM   40  O   LIG     1     -14.347   8.544  70.945  1.00  0.00    -0.206 OA
HETATM   41  O   LIG     1     -12.896  10.410  71.843  1.00  0.00    -0.206 OA
BRANCH  39  42
HETATM   42  N   LIG     1     -14.108   8.877  73.406  1.00  0.00    -0.225 NA
HETATM   43  H   LIG     1     -15.046   8.490  73.305  1.00  0.00     0.136 HD
HETATM   44  H   LIG     1     -14.067   9.756  73.918  1.00  0.00     0.136 HD
ENDBRANCH  39  42
ENDBRANCH  33  39
ENDBRANCH  26  29
ENDBRANCH  22  26
ENDBRANCH  13  16
ENDBRANCH  10  12
BRANCH  10  45
HETATM   45  S   LIG     1      -3.541   2.786  66.105  1.00  0.00    -0.163 SA
HETATM   46  H   LIG     1      -4.684   2.077  66.031  1.00  0.00     0.102 HD
ENDBRANCH  10  45
ENDBRANCH   1  10
BRANCH   6  47
HETATM   47  C   LIG     1      -4.433   7.362  67.372  1.00  0.00    -0.026 C 
HETATM   48  H   LIG     1      -4.046   8.354  67.098  1.00  0.00     0.042 H 
HETATM   49  H   LIG     1      -3.573   6.848  67.808  1.00  0.00     0.042 H 
BRANCH  47  50
HETATM   50  C   LIG     1      -5.561   7.534  68.395  1.00  0.00    -0.001 C 
HETATM   51  H   LIG     1      -5.351   8.378  69.060  1.00  0.00     0.064 H 
HETATM   52  H   LIG     1      -5.652   6.637  69.020  1.00  0.00     0.064 H 
BRANCH  50  53
HETATM   53  N   LIG     1      -6.850   7.704  67.746  1.00  0.00    -0.360 N 
HETATM   54  C   LIG     1      -7.986   8.079  68.426  1.00  0.00     0.221 C 
HETATM   55  O   LIG     1      -7.978   8.326  69.625  1.00  0.00    -0.273 OA
HETATM   56  H   LIG     1      -6.949   7.354  66.803  1.00  0.00     0.162 HD
BRANCH  54  57
HETATM   57  C   LIG     1      -9.259   8.125  67.575  1.00  0.00     0.024 C 
HETATM   58  H   LIG     1      -9.425   9.196  67.391  1.00  0.00     0.054 H 
HETATM   59  C   LIG     1      -9.054   7.467  66.200  1.00  0.00    -0.051 C 
HETATM   60  C   LIG     1      -9.231   5.949  66.176  1.00  0.00    -0.040 C 
HETATM   61  H   LIG     1      -8.056   7.702  65.806  1.00  0.00     0.034 H 
HETATM   62  H   LIG     1      -9.765   7.911  65.492  1.00  0.00     0.034 H 
HETATM   63  C   LIG     1     -10.485   5.463  66.885  1.00  0.00     0.035 C 
HETATM   64  H   LIG     1      -8.363   5.472  66.640  1.00  0.00     0.036 H 
HETATM   65  H   LIG     1      -9.255   5.631  65.125  1.00  0.00     0.036 H 
HETATM   66  H   LIG     1     -10.446   4.370  66.979  1.00  0.00     0.082 H 
HETATM   67  C   LIG     1     -10.630   6.065  68.278  1.00  0.00    -0.040 C 
HETATM   68  C   LIG     1     -10.480   7.583  68.329  1.00  0.00    -0.051 C 
HETATM   69  H   LIG     1      -9.878   5.618  68.937  1.00  0.00     0.036 H 
HETATM   70  H   LIG     1     -11.616   5.810  68.685  1.00  0.00     0.036 H 
HETATM   71  H   LIG     1     -10.453   7.868  69.387  1.00  0.00     0.034 H 
HETATM   72  H   LIG     1     -11.383   8.058  67.925  1.00  0.00     0.034 H 
BRANCH  63  73
HETATM   73  O   LIG     1     -11.632   5.779  66.106  1.00  0.00    -0.396 OA
HETATM   74  H   LIG     1     -11.521   5.346  65.240  1.00  0.00     0.210 HD
ENDBRANCH  63  73
ENDBRANCH  54  57
ENDBRANCH  50  53
ENDBRANCH  47  50
ENDBRANCH   6  47
TORSDOF 13
ENDMDL
MODEL 3
REMARK minimizedAffinity -5.73108864
REMARK minimizedRMSD -1
REMARK  13 active torsions:
REMARK  status: ('A' for Active; 'I' for Inactive)
REMARK    1  A    between atoms: N_1  and  S_2 
REMARK    2  A    between atoms: S_2  and  C_5 
REMARK    3  A    between atoms: C_8  and  C_9 
REMARK    4  A    between atoms: C_9  and  C_10 
REMARK    5  A    between atoms: C_14  and  N_15 
REMARK       I    between atoms: N_15  and  C_16 
REMARK    6  A    between atoms: C_16  and  C_18 
REMARK    7  A    between atoms: C_18  and  S_19 
REMARK    8  A    between atoms: C_18  and  C_20 
REMARK    9  A    between atoms: C_25  and  C_26 
REMARK   10  A    between atoms: C_26  and  C_27 
REMARK   11  A    between atoms: C_27  and  N_28 
REMARK       I    between atoms: N_28  and  C_29 
REMARK   12  A    between atoms: C_29  and  C_31 
REMARK   13  A    between atoms: C_35  and  O_37 
ROOT
HETATM    1  C   LIG     1      -6.410   9.551  64.770  1.00  0.00    -0.012 A 
HETATM    2  C   LIG     1      -5.789  10.370  63.817  1.00  0.00     0.010 A 
HETATM    3  N   LIG     1      -4.666  11.102  64.016  1.00  0.00    -0.272 NA
HETATM    4  C   LIG     1      -4.124  11.056  65.242  1.00  0.00     0.002 A 
HETATM    5  C   LIG     1      -4.668  10.326  66.281  1.00  0.00    -0.059 A 
HETATM    6  C   LIG     1      -5.833   9.563  66.063  1.00  0.00    -0.046 A 
HETATM    7  H   LIG     1      -6.179  10.468  62.805  1.00  0.00     0.115 H 
HETATM    8  H   LIG     1      -3.223  11.646  65.377  1.00  0.00     0.114 H 
HETATM    9  H   LIG     1      -4.186  10.359  67.255  1.00  0.00     0.086 H 
ENDROOT
BRANCH   1  10
HETATM   10  C   LIG     1      -7.634   8.718  64.389  1.00  0.00     0.093 C 
HETATM   11  H   LIG     1      -7.578   7.751  64.894  1.00  0.00     0.078 H 
BRANCH  10  12
HETATM   12  C   LIG     1      -8.990   9.385  64.685  1.00  0.00     0.240 C 
HETATM   13  N   LIG     1      -9.167  10.607  64.037  1.00  0.00    -0.326 N 
HETATM   14  H   LIG     1      -8.742  10.699  63.121  1.00  0.00     0.169 HD
HETATM   15  O   LIG     1      -9.794   8.904  65.482  1.00  0.00    -0.272 OA
BRANCH  13  16
HETATM   16  C   LIG     1     -10.321  11.389  64.256  1.00  0.00     0.035 A 
HETATM   17  C   LIG     1     -11.307  11.537  63.283  1.00  0.00    -0.057 A 
HETATM   18  C   LIG     1     -12.474  12.253  63.573  1.00  0.00    -0.080 A 
HETATM   19  H   LIG     1     -11.195  11.073  62.308  1.00  0.00     0.086 H 
HETATM   20  C   LIG     1     -12.629  12.879  64.810  1.00  0.00    -0.076 A 
HETATM   21  H   LIG     1     -13.260  12.338  62.827  1.00  0.00     0.083 H 
HETATM   22  C   LIG     1     -11.610  12.795  65.760  1.00  0.00    -0.052 A 
HETATM   23  H   LIG     1     -13.532  13.448  65.017  1.00  0.00     0.084 H 
HETATM   24  C   LIG     1     -10.488  12.001  65.490  1.00  0.00    -0.051 A 
HETATM   25  H   LIG     1      -9.708  11.934  66.236  1.00  0.00     0.087 H 
BRANCH  22  26
HETATM   26  C   LIG     1     -11.692  13.539  67.068  1.00  0.00    -0.017 C 
HETATM   27  H   LIG     1     -12.726  13.536  67.438  1.00  0.00     0.047 H 
HETATM   28  H   LIG     1     -11.119  12.988  67.824  1.00  0.00     0.047 H 
BRANCH  26  29
HETATM   29  C   LIG     1     -11.206  14.962  66.969  1.00  0.00    -0.054 A 
HETATM   30  C   LIG     1     -11.152  15.778  68.109  1.00  0.00    -0.075 A 
HETATM   31  C   LIG     1     -10.707  17.092  68.020  1.00  0.00    -0.060 A 
HETATM   32  H   LIG     1     -11.476  15.391  69.070  1.00  0.00     0.084 H 
HETATM   33  C   LIG     1     -10.321  17.595  66.782  1.00  0.00     0.074 A 
HETATM   34  H   LIG     1     -10.675  17.712  68.915  1.00  0.00     0.085 H 
HETATM   35  C   LIG     1     -10.365  16.802  65.631  1.00  0.00    -0.060 A 
HETATM   36  C   LIG     1     -10.812  15.481  65.732  1.00  0.00    -0.075 A 
HETATM   37  H   LIG     1     -10.070  17.193  64.666  1.00  0.00     0.085 H 
HETATM   38  H   LIG     1     -10.857  14.864  64.836  1.00  0.00     0.084 H 
BRANCH  33  39
HETATM   39  S   LIG     1      -9.720  19.248  66.651  1.00  0.00     0.239 S 
HETATM   40  O   LIG     1      -8.415  19.241  66.071  1.00  0.00    -0.206 OA
HETATM   41  O   LIG     1     -10.021  19.953  67.889  1.00  0.00    -0.206 OA
BRANCH  39  42
HETATM   42  N   LIG     1     -10.753  19.892  65.498  1.00  0.00    -0.225 NA
HETATM   43  H   LIG     1     -10.220  20.156  64.670  1.00  0.00     0.136 HD
HETATM   44  H   LIG     1     -11.310  20.644  65.898  1.00  0.00     0.136 HD
ENDBRANCH  39  42
ENDBRANCH  33  39
ENDBRANCH  26  29
ENDBRANCH  22  26
ENDBRANCH  13  16
ENDBRANCH  10  12
BRANCH  10  45
HETATM   45  S   LIG     1      -7.686   8.271  62.593  1.00  0.00    -0.163 SA
HETATM   46  H   LIG     1      -8.282   9.411  62.192  1.00  0.00     0.102 HD
ENDBRANCH  10  45
ENDBRANCH   1  10
BRANCH   6  47
HETATM   47  C   LIG     1      -6.408   8.851  67.269  1.00  0.00    -0.026 C 
HETATM   48  H   LIG     1      -5.585   8.409  67.851  1.00  0.00     0.042 H 
HETATM   49  H   LIG     1      -7.019   7.994  66.972  1.00  0.00     0.042 H 
BRANCH  47  50
HETATM   50  C   LIG     1      -7.192   9.811  68.170  1.00  0.00    -0.001 C 
HETATM   51  H   LIG     1      -7.012  10.849  67.873  1.00  0.00     0.064 H 
HETATM   52  H   LIG     1      -6.872   9.706  69.213  1.00  0.00     0.064 H 
BRANCH  50  53
HETATM   53  N   LIG     1      -8.615   9.516  68.155  1.00  0.00    -0.360 N 
HETATM   54  C   LIG     1      -9.572  10.424  68.546  1.00  0.00     0.221 C 
HETATM   55  O   LIG     1      -9.287  11.559  68.904  1.00  0.00    -0.273 OA
HETATM   56  H   LIG     1      -8.892   8.550  68.032  1.00  0.00     0.162 HD
BRANCH  54  57
HETATM   57  C   LIG     1     -11.008   9.891  68.532  1.00  0.00     0.024 C 
HETATM   58  H   LIG     1     -11.350  10.055  67.500  1.00  0.00     0.054 H 
HETATM   59  C   LIG     1     -11.060   8.373  68.778  1.00  0.00    -0.051 C 
HETATM   60  C   LIG     1     -11.041   7.955  70.248  1.00  0.00    -0.040 C 
HETATM   61  H   LIG     1     -10.225   7.873  68.269  1.00  0.00     0.034 H 
HETATM   62  H   LIG     1     -11.972   7.976  68.316  1.00  0.00     0.034 H 
HETATM   63  C   LIG     1     -12.012   8.731  71.123  1.00  0.00     0.035 C 
HETATM   64  H   LIG     1     -10.032   8.084  70.652  1.00  0.00     0.036 H 
HETATM   65  H   LIG     1     -11.278   6.884  70.295  1.00  0.00     0.036 H 
HETATM   66  H   LIG     1     -11.812   8.501  72.177  1.00  0.00     0.082 H 
HETATM   67  C   LIG     1     -11.892  10.237  70.924  1.00  0.00    -0.040 C 
HETATM   68  C   LIG     1     -11.931  10.686  69.465  1.00  0.00    -0.051 C 
HETATM   69  H   LIG     1     -10.952  10.580  71.369  1.00  0.00     0.036 H 
HETATM   70  H   LIG     1     -12.709  10.743  71.453  1.00  0.00     0.036 H 
HETATM   71  H   LIG     1     -11.685  11.755  69.451  1.00  0.00     0.034 H 
HETATM   72  H   LIG     1     -12.958  10.621  69.085  1.00  0.00     0.034 H 
BRANCH  63  73
HETATM   73  O   LIG     1     -13.344   8.318  70.847  1.00  0.00    -0.396 OA
HETATM   74  H   LIG     1     -13.392   7.360  71.024  1.00  0.00     0.210 HD
ENDBRANCH  63  73
ENDBRANCH  54  57
ENDBRANCH  50  53
ENDBRANCH  47  50
ENDBRANCH   6  47
TORSDOF 13
ENDMDL
MODEL 4
REMARK minimizedAffinity -4.57310867
REMARK minimizedRMSD -1
REMARK  13 active torsions:
REMARK  status: ('A' for Active; 'I' for Inactive)
REMARK    1  A    between atoms: N_1  and  S_2 
REMARK    2  A    between atoms: S_2  and  C_5 
REMARK    3  A    between atoms: C_8  and  C_9 
REMARK    4  A    between atoms: C_9  and  C_10 
REMARK    5  A    between atoms: C_14  and  N_15 
REMARK       I    between atoms: N_15  and  C_16 
REMARK    6  A    between atoms: C_16  and  C_18 
REMARK    7  A    between atoms: C_18  and  S_19 
REMARK    8  A    between atoms: C_18  and  C_20 
REMARK    9  A    between atoms: C_25  and  C_26 
REMARK   10  A    between atoms: C_26  and  C_27 
REMARK   11  A    between atoms: C_27  and  N_28 
REMARK       I    between atoms: N_28  and  C_29 
REMARK   12  A    between atoms: C_29  and  C_31 
REMARK   13  A    between atoms: C_35  and  O_37 
ROOT
HETATM    1  C   LIG     1      -8.876   5.565  67.078  1.00  0.00    -0.012 A 
HETATM    2  C   LIG     1     -10.253   5.302  67.105  1.00  0.00     0.010 A 
HETATM    3  N   LIG     1     -11.235   6.236  67.101  1.00  0.00    -0.272 NA
HETATM    4  C   LIG     1     -10.849   7.520  67.101  1.00  0.00     0.002 A 
HETATM    5  C   LIG     1      -9.523   7.909  67.125  1.00  0.00    -0.059 A 
HETATM    6  C   LIG     1      -8.509   6.931  67.122  1.00  0.00    -0.046 A 
HETATM    7  H   LIG     1     -10.641   4.285  67.120  1.00  0.00     0.115 H 
HETATM    8  H   LIG     1     -11.652   8.251  67.092  1.00  0.00     0.114 H 
HETATM    9  H   LIG     1      -9.288   8.970  67.149  1.00  0.00     0.086 H 
ENDROOT
BRANCH   1  10
HETATM   10  C   LIG     1      -7.874   4.413  67.010  1.00  0.00     0.093 C 
HETATM   11  H   LIG     1      -6.887   4.813  66.765  1.00  0.00     0.078 H 
BRANCH  10  12
HETATM   12  C   LIG     1      -7.788   3.552  68.284  1.00  0.00     0.240 C 
HETATM   13  N   LIG     1      -8.757   2.552  68.352  1.00  0.00    -0.326 N 
HETATM   14  H   LIG     1      -9.037   2.134  67.472  1.00  0.00     0.169 HD
HETATM   15  O   LIG     1      -6.980   3.793  69.180  1.00  0.00    -0.272 OA
BRANCH  13  16
HETATM   16  C   LIG     1      -8.869   1.720  69.486  1.00  0.00     0.035 A 
HETATM   17  C   LIG     1      -8.264   0.466  69.545  1.00  0.00    -0.057 A 
HETATM   18  C   LIG     1      -8.332  -0.289  70.721  1.00  0.00    -0.080 A 
HETATM   19  H   LIG     1      -7.709   0.081  68.695  1.00  0.00     0.086 H 
HETATM   20  C   LIG     1      -9.060   0.175  71.816  1.00  0.00    -0.076 A 
HETATM   21  H   LIG     1      -7.829  -1.251  70.779  1.00  0.00     0.083 H 
HETATM   22  C   LIG     1      -9.730   1.397  71.735  1.00  0.00    -0.052 A 
HETATM   23  H   LIG     1      -9.121  -0.429  72.719  1.00  0.00     0.084 H 
HETATM   24  C   LIG     1      -9.579   2.183  70.585  1.00  0.00    -0.051 A 
HETATM   25  H   LIG     1     -10.093   3.132  70.535  1.00  0.00     0.087 H 
BRANCH  22  26
HETATM   26  C   LIG     1     -10.609   1.887  72.856  1.00  0.00    -0.017 C 
HETATM   27  H   LIG     1     -11.592   2.179  72.463  1.00  0.00     0.047 H 
HETATM   28  H   LIG     1     -10.813   1.051  73.536  1.00  0.00     0.047 H 
BRANCH  26  29
HETATM   29  C   LIG     1     -10.013   3.049  73.607  1.00  0.00    -0.054 A 
HETATM   30  C   LIG     1     -10.818   4.124  74.014  1.00  0.00    -0.075 A 
HETATM   31  C   LIG     1     -10.270   5.199  74.706  1.00  0.00    -0.060 A 
HETATM   32  H   LIG     1     -11.877   4.131  73.774  1.00  0.00     0.084 H 
HETATM   33  C   LIG     1      -8.907   5.201  74.985  1.00  0.00     0.074 A 
HETATM   34  H   LIG     1     -10.909   6.026  75.010  1.00  0.00     0.085 H 
HETATM   35  C   LIG     1      -8.084   4.142  74.591  1.00  0.00    -0.060 A 
HETATM   36  C   LIG     1      -8.645   3.065  73.899  1.00  0.00    -0.075 A 
HETATM   37  H   LIG     1      -7.023   4.145  74.803  1.00  0.00     0.085 H 
HETATM   38  H   LIG     1      -8.005   2.244  73.582  1.00  0.00     0.084 H 
BRANCH  33  39
HETATM   39  S   LIG     1      -8.197   6.537  75.891  1.00  0.00     0.239 S 
HETATM   40  O   LIG     1      -8.240   7.729  75.105  1.00  0.00    -0.206 OA
HETATM   41  O   LIG     1      -6.978   6.068  76.534  1.00  0.00    -0.206 OA
BRANCH  39  42
HETATM   42  N   LIG     1      -9.315   6.737  77.126  1.00  0.00    -0.225 NA
HETATM   43  H   LIG     1      -9.742   7.661  77.055  1.00  0.00     0.136 HD
HETATM   44  H   LIG     1      -8.888   6.538  78.028  1.00  0.00     0.136 HD
ENDBRANCH  39  42
ENDBRANCH  33  39
ENDBRANCH  26  29
ENDBRANCH  22  26
ENDBRANCH  13  16
ENDBRANCH  10  12
BRANCH  10  45
HETATM   45  S   LIG     1      -8.218   3.222  65.634  1.00  0.00    -0.163 SA
HETATM   46  H   LIG     1      -9.099   2.474  66.326  1.00  0.00     0.102 HD
ENDBRANCH  10  45
ENDBRANCH   1  10
BRANCH   6  47
HETATM   47  C   LIG     1      -7.085   7.437  67.223  1.00  0.00    -0.026 C 
HETATM   48  H   LIG     1      -7.094   8.537  67.219  1.00  0.00     0.042 H 
HETATM   49  H   LIG     1      -6.503   7.168  66.338  1.00  0.00     0.042 H 
BRANCH  47  50
HETATM   50  C   LIG     1      -6.404   6.951  68.508  1.00  0.00    -0.001 C 
HETATM   51  H   LIG     1      -5.616   7.646  68.812  1.00  0.00     0.064 H 
HETATM   52  H   LIG     1      -5.937   5.972  68.347  1.00  0.00     0.064 H 
BRANCH  50  53
HETATM   53  N   LIG     1      -7.364   6.766  69.583  1.00  0.00    -0.360 N 
HETATM   54  C   LIG     1      -7.697   7.766  70.469  1.00  0.00     0.221 C 
HETATM   55  O   LIG     1      -7.227   8.892  70.389  1.00  0.00    -0.273 OA
HETATM   56  H   LIG     1      -7.652   5.820  69.798  1.00  0.00     0.162 HD
BRANCH  54  57
HETATM   57  C   LIG     1      -8.667   7.346  71.577  1.00  0.00     0.024 C 
HETATM   58  H   LIG     1      -8.056   7.347  72.491  1.00  0.00     0.054 H 
HETATM   59  C   LIG     1      -9.781   8.387  71.791  1.00  0.00    -0.051 C 
HETATM   60  C   LIG     1     -10.978   8.255  70.851  1.00  0.00    -0.040 C 
HETATM   61  H   LIG     1      -9.379   9.404  71.693  1.00  0.00     0.034 H 
HETATM   62  H   LIG     1     -10.140   8.306  72.824  1.00  0.00     0.034 H 
HETATM   63  C   LIG     1     -11.510   6.837  70.723  1.00  0.00     0.035 C 
HETATM   64  H   LIG     1     -10.703   8.613  69.854  1.00  0.00     0.036 H 
HETATM   65  H   LIG     1     -11.773   8.914  71.226  1.00  0.00     0.036 H 
HETATM   66  H   LIG     1     -12.241   6.797  69.906  1.00  0.00     0.082 H 
HETATM   67  C   LIG     1     -10.403   5.830  70.433  1.00  0.00    -0.040 C 
HETATM   68  C   LIG     1      -9.202   5.923  71.372  1.00  0.00    -0.051 C 
HETATM   69  H   LIG     1     -10.054   5.972  69.405  1.00  0.00     0.036 H 
HETATM   70  H   LIG     1     -10.807   4.812  70.504  1.00  0.00     0.036 H 
HETATM   71  H   LIG     1      -8.427   5.261  70.968  1.00  0.00     0.034 H 
HETATM   72  H   LIG     1      -9.464   5.499  72.349  1.00  0.00     0.034 H 
BRANCH  63  73
HETATM   73  O   LIG     1     -12.190   6.468  71.916  1.00  0.00    -0.396 OA
HETATM   74  H   LIG     1     -12.913   7.110  72.047  1.00  0.00     0.210 HD
ENDBRANCH  63  73
ENDBRANCH  54  57
ENDBRANCH  50  53
ENDBRANCH  47  50
ENDBRANCH   6  47
TORSDOF 13
ENDMDL
MODEL 5
REMARK minimizedAffinity -4.24620104
REMARK minimizedRMSD -1
REMARK  13 active torsions:
REMARK  status: ('A' for Active; 'I' for Inactive)
REMARK    1  A    between atoms: N_1  and  S_2 
REMARK    2  A    between atoms: S_2  and  C_5 
REMARK    3  A    between atoms: C_8  and  C_9 
REMARK    4  A    between atoms: C_9  and  C_10 
REMARK    5  A    between atoms: C_14  and  N_15 
REMARK       I    between atoms: N_15  and  C_16 
REMARK    6  A    between atoms: C_16  and  C_18 
REMARK    7  A    between atoms: C_18  and  S_19 
REMARK    8  A    between atoms: C_18  and  C_20 
REMARK    9  A    between atoms: C_25  and  C_26 
REMARK   10  A    between atoms: C_26  and  C_27 
REMARK   11  A    between atoms: C_27  and  N_28 
REMARK       I    between atoms: N_28  and  C_29 
REMARK   12  A    between atoms: C_29  and  C_31 
REMARK   13  A    between atoms: C_35  and  O_37 
ROOT
HETATM    1  C   LIG     1      -9.000   5.699  67.031  1.00  0.00    -0.012 A 
HETATM    2  C   LIG     1     -10.314   6.017  67.405  1.00  0.00     0.010 A 
HETATM    3  N   LIG     1     -10.953   7.179  67.127  1.00  0.00    -0.272 NA
HETATM    4  C   LIG     1     -10.255   8.110  66.463  1.00  0.00     0.002 A 
HETATM    5  C   LIG     1      -8.938   7.938  66.082  1.00  0.00    -0.059 A 
HETATM    6  C   LIG     1      -8.282   6.724  66.370  1.00  0.00    -0.046 A 
HETATM    7  H   LIG     1     -10.937   5.317  67.958  1.00  0.00     0.115 H 
HETATM    8  H   LIG     1     -10.789   9.031  66.247  1.00  0.00     0.114 H 
HETATM    9  H   LIG     1      -8.429   8.750  65.569  1.00  0.00     0.086 H 
ENDROOT
BRANCH   1  10
HETATM   10  C   LIG     1      -8.424   4.318  67.345  1.00  0.00     0.093 C 
HETATM   11  H   LIG     1      -7.443   4.226  66.873  1.00  0.00     0.078 H 
BRANCH  10  12
HETATM   12  C   LIG     1      -8.317   3.986  68.845  1.00  0.00     0.240 C 
HETATM   13  N   LIG     1      -9.476   3.428  69.381  1.00  0.00    -0.326 N 
HETATM   14  H   LIG     1     -10.018   2.833  68.764  1.00  0.00     0.169 HD
HETATM   15  O   LIG     1      -7.317   4.267  69.505  1.00  0.00    -0.272 OA
BRANCH  13  16
HETATM   16  C   LIG     1      -9.576   3.132  70.756  1.00  0.00     0.035 A 
HETATM   17  C   LIG     1      -9.181   1.903  71.278  1.00  0.00    -0.057 A 
HETATM   18  C   LIG     1      -9.220   1.683  72.659  1.00  0.00    -0.080 A 
HETATM   19  H   LIG     1      -8.810   1.120  70.624  1.00  0.00     0.086 H 
HETATM   20  C   LIG     1      -9.716   2.666  73.516  1.00  0.00    -0.076 A 
HETATM   21  H   LIG     1      -8.877   0.737  73.070  1.00  0.00     0.083 H 
HETATM   22  C   LIG     1     -10.183   3.872  72.990  1.00  0.00    -0.052 A 
HETATM   23  H   LIG     1      -9.758   2.477  74.586  1.00  0.00     0.084 H 
HETATM   24  C   LIG     1     -10.055   4.112  71.615  1.00  0.00    -0.051 A 
HETATM   25  H   LIG     1     -10.410   5.053  71.218  1.00  0.00     0.087 H 
BRANCH  22  26
HETATM   26  C   LIG     1     -10.820   4.918  73.867  1.00  0.00    -0.017 C 
HETATM   27  H   LIG     1     -11.526   5.522  73.281  1.00  0.00     0.047 H 
HETATM   28  H   LIG     1     -11.436   4.417  74.624  1.00  0.00     0.047 H 
BRANCH  26  29
HETATM   29  C   LIG     1      -9.815   5.830  74.520  1.00  0.00    -0.054 A 
HETATM   30  C   LIG     1      -9.341   6.968  73.849  1.00  0.00    -0.075 A 
HETATM   31  C   LIG     1      -8.411   7.810  74.448  1.00  0.00    -0.060 A 
HETATM   32  H   LIG     1      -9.687   7.188  72.843  1.00  0.00     0.084 H 
HETATM   33  C   LIG     1      -7.947   7.508  75.724  1.00  0.00     0.074 A 
HETATM   34  H   LIG     1      -8.053   8.686  73.911  1.00  0.00     0.085 H 
HETATM   35  C   LIG     1      -8.403   6.381  76.415  1.00  0.00    -0.060 A 
HETATM   36  C   LIG     1      -9.340   5.542  75.804  1.00  0.00    -0.075 A 
HETATM   37  H   LIG     1      -8.039   6.142  77.405  1.00  0.00     0.085 H 
HETATM   38  H   LIG     1      -9.690   4.659  76.334  1.00  0.00     0.084 H 
BRANCH  33  39
HETATM   39  S   LIG     1      -6.794   8.581  76.518  1.00  0.00     0.239 S 
HETATM   40  O   LIG     1      -5.701   8.848  75.639  1.00  0.00    -0.206 OA
HETATM   41  O   LIG     1      -6.602   8.127  77.888  1.00  0.00    -0.206 OA
BRANCH  39  42
HETATM   42  N   LIG     1      -7.678  10.002  76.629  1.00  0.00    -0.225 NA
HETATM   43  H   LIG     1      -7.225  10.731  76.077  1.00  0.00     0.136 HD
HETATM   44  H   LIG     1      -7.837  10.248  77.604  1.00  0.00     0.136 HD
ENDBRANCH  39  42
ENDBRANCH  33  39
ENDBRANCH  26  29
ENDBRANCH  22  26
ENDBRANCH  13  16
ENDBRANCH  10  12
BRANCH  10  45
HETATM   45  S   LIG     1      -9.400   2.931  66.602  1.00  0.00    -0.163 SA
HETATM   46  H   LIG     1     -10.286   2.839  67.612  1.00  0.00     0.102 HD
ENDBRANCH  10  45
ENDBRANCH   1  10
BRANCH   6  47
HETATM   47  C   LIG     1      -6.819   6.640  65.986  1.00  0.00    -0.026 C 
HETATM   48  H   LIG     1      -6.523   7.580  65.495  1.00  0.00     0.042 H 
HETATM   49  H   LIG     1      -6.651   5.874  65.225  1.00  0.00     0.042 H 
BRANCH  47  50
HETATM   50  C   LIG     1      -5.927   6.418  67.212  1.00  0.00    -0.001 C 
HETATM   51  H   LIG     1      -4.912   6.777  67.018  1.00  0.00     0.064 H 
HETATM   52  H   LIG     1      -5.859   5.349  67.447  1.00  0.00     0.064 H 
BRANCH  50  53
HETATM   53  N   LIG     1      -6.478   7.056  68.396  1.00  0.00    -0.360 N 
HETATM   54  C   LIG     1      -6.155   8.340  68.772  1.00  0.00     0.221 C 
HETATM   55  O   LIG     1      -5.402   9.044  68.112  1.00  0.00    -0.273 OA
HETATM   56  H   LIG     1      -6.965   6.470  69.060  1.00  0.00     0.162 HD
BRANCH  54  57
HETATM   57  C   LIG     1      -6.779   8.799  70.093  1.00  0.00     0.024 C 
HETATM   58  H   LIG     1      -5.918   9.037  70.734  1.00  0.00     0.054 H 
HETATM   59  C   LIG     1      -7.580  10.102  69.928  1.00  0.00    -0.051 C 
HETATM   60  C   LIG     1      -9.019   9.921  69.444  1.00  0.00    -0.040 C 
HETATM   61  H   LIG     1      -7.068  10.782  69.234  1.00  0.00     0.034 H 
HETATM   62  H   LIG     1      -7.602  10.623  70.893  1.00  0.00     0.034 H 
HETATM   63  C   LIG     1      -9.789   8.842  70.189  1.00  0.00     0.035 C 
HETATM   64  H   LIG     1      -9.018   9.673  68.379  1.00  0.00     0.036 H 
HETATM   65  H   LIG     1      -9.534  10.884  69.555  1.00  0.00     0.036 H 
HETATM   66  H   LIG     1     -10.737   8.652  69.671  1.00  0.00     0.082 H 
HETATM   67  C   LIG     1      -9.012   7.533  70.274  1.00  0.00    -0.040 C 
HETATM   68  C   LIG     1      -7.578   7.681  70.777  1.00  0.00    -0.051 C 
HETATM   69  H   LIG     1      -8.988   7.069  69.282  1.00  0.00     0.036 H 
HETATM   70  H   LIG     1      -9.534   6.841  70.947  1.00  0.00     0.036 H 
HETATM   71  H   LIG     1      -7.090   6.708  70.647  1.00  0.00     0.034 H 
HETATM   72  H   LIG     1      -7.582   7.861  71.859  1.00  0.00     0.034 H 
BRANCH  63  73
HETATM   73  O   LIG     1     -10.107   9.295  71.499  1.00  0.00    -0.396 OA
HETATM   74  H   LIG     1     -10.635  10.108  71.403  1.00  0.00     0.210 HD
ENDBRANCH  63  73
ENDBRANCH  54  57
ENDBRANCH  50  53
ENDBRANCH  47  50
ENDBRANCH   6  47
TORSDOF 13
ENDMDL
MODEL 6
REMARK minimizedAffinity -4.13346958
REMARK minimizedRMSD -1
REMARK  13 active torsions:
REMARK  status: ('A' for Active; 'I' for Inactive)
REMARK    1  A    between atoms: N_1  and  S_2 
REMARK    2  A    between atoms: S_2  and  C_5 
REMARK    3  A    between atoms: C_8  and  C_9 
REMARK    4  A    between atoms: C_9  and  C_10 
REMARK    5  A    between atoms: C_14  and  N_15 
REMARK       I    between atoms: N_15  and  C_16 
REMARK    6  A    between atoms: C_16  and  C_18 
REMARK    7  A    between atoms: C_18  and  S_19 
REMARK    8  A    between atoms: C_18  and  C_20 
REMARK    9  A    between atoms: C_25  and  C_26 
REMARK   10  A    between atoms: C_26  and  C_27 
REMARK   11  A    between atoms: C_27  and  N_28 
REMARK       I    between atoms: N_28  and  C_29 
REMARK   12  A    between atoms: C_29  and  C_31 
REMARK   13  A    between atoms: C_35  and  O_37 
ROOT
HETATM    1  C   LIG     1      -9.835   4.987  70.013  1.00  0.00    -0.012 A 
HETATM    2  C   LIG     1      -9.489   4.689  68.687  1.00  0.00     0.010 A 
HETATM    3  N   LIG     1     -10.019   5.269  67.584  1.00  0.00    -0.272 NA
HETATM    4  C   LIG     1     -10.976   6.186  67.783  1.00  0.00     0.002 A 
HETATM    5  C   LIG     1     -11.440   6.533  69.038  1.00  0.00    -0.059 A 
HETATM    6  C   LIG     1     -10.878   5.928  70.181  1.00  0.00    -0.046 A 
HETATM    7  H   LIG     1      -8.730   3.946  68.447  1.00  0.00     0.115 H 
HETATM    8  H   LIG     1     -11.383   6.642  66.885  1.00  0.00     0.114 H 
HETATM    9  H   LIG     1     -12.238   7.267  69.119  1.00  0.00     0.086 H 
ENDROOT
BRANCH   1  10
HETATM   10  C   LIG     1      -9.103   4.308  71.171  1.00  0.00     0.093 C 
HETATM   11  H   LIG     1      -9.003   5.018  71.995  1.00  0.00     0.078 H 
BRANCH  10  12
HETATM   12  C   LIG     1      -9.754   3.008  71.676  1.00  0.00     0.240 C 
HETATM   13  N   LIG     1     -10.311   3.117  72.950  1.00  0.00    -0.326 N 
HETATM   14  H   LIG     1     -10.711   4.016  73.192  1.00  0.00     0.169 HD
HETATM   15  O   LIG     1      -9.707   1.961  71.031  1.00  0.00    -0.272 OA
BRANCH  13  16
HETATM   16  C   LIG     1     -10.882   2.001  73.596  1.00  0.00     0.035 A 
HETATM   17  C   LIG     1     -12.182   1.579  73.329  1.00  0.00    -0.057 A 
HETATM   18  C   LIG     1     -12.679   0.417  73.930  1.00  0.00    -0.080 A 
HETATM   19  H   LIG     1     -12.807   2.125  72.630  1.00  0.00     0.086 H 
HETATM   20  C   LIG     1     -11.903  -0.288  74.850  1.00  0.00    -0.076 A 
HETATM   21  H   LIG     1     -13.680   0.067  73.694  1.00  0.00     0.083 H 
HETATM   22  C   LIG     1     -10.626   0.174  75.177  1.00  0.00    -0.052 A 
HETATM   23  H   LIG     1     -12.306  -1.180  75.325  1.00  0.00     0.084 H 
HETATM   24  C   LIG     1     -10.109   1.286  74.501  1.00  0.00    -0.051 A 
HETATM   25  H   LIG     1      -9.116   1.630  74.753  1.00  0.00     0.087 H 
BRANCH  22  26
HETATM   26  C   LIG     1      -9.795  -0.498  76.239  1.00  0.00    -0.017 C 
HETATM   27  H   LIG     1     -10.347  -1.346  76.668  1.00  0.00     0.047 H 
HETATM   28  H   LIG     1      -8.912  -0.946  75.765  1.00  0.00     0.047 H 
BRANCH  26  29
HETATM   29  C   LIG     1      -9.386   0.437  77.347  1.00  0.00    -0.054 A 
HETATM   30  C   LIG     1      -8.032   0.606  77.674  1.00  0.00    -0.075 A 
HETATM   31  C   LIG     1      -7.651   1.466  78.698  1.00  0.00    -0.060 A 
HETATM   32  H   LIG     1      -7.269   0.049  77.136  1.00  0.00     0.084 H 
HETATM   33  C   LIG     1      -8.631   2.154  79.404  1.00  0.00     0.074 A 
HETATM   34  H   LIG     1      -6.596   1.582  78.939  1.00  0.00     0.085 H 
HETATM   35  C   LIG     1      -9.987   2.004  79.098  1.00  0.00    -0.060 A 
HETATM   36  C   LIG     1     -10.359   1.139  78.065  1.00  0.00    -0.075 A 
HETATM   37  H   LIG     1     -10.751   2.535  79.650  1.00  0.00     0.085 H 
HETATM   38  H   LIG     1     -11.414   1.012  77.830  1.00  0.00     0.084 H 
BRANCH  33  39
HETATM   39  S   LIG     1      -8.170   3.277  80.684  1.00  0.00     0.239 S 
HETATM   40  O   LIG     1      -7.295   2.624  81.605  1.00  0.00    -0.206 OA
HETATM   41  O   LIG     1      -9.354   4.006  81.114  1.00  0.00    -0.206 OA
BRANCH  39  42
HETATM   42  N   LIG     1      -7.235   4.384  79.838  1.00  0.00    -0.225 NA
HETATM   43  H   LIG     1      -6.278   4.362  80.189  1.00  0.00     0.136 HD
HETATM   44  H   LIG     1      -7.670   5.304  79.856  1.00  0.00     0.136 HD
ENDBRANCH  39  42
ENDBRANCH  33  39
ENDBRANCH  26  29
ENDBRANCH  22  26
ENDBRANCH  13  16
ENDBRANCH  10  12
BRANCH  10  45
HETATM   45  S   LIG     1      -7.352   3.857  70.767  1.00  0.00    -0.163 SA
HETATM   46  H   LIG     1      -7.651   2.671  70.202  1.00  0.00     0.102 HD
ENDBRANCH  10  45
ENDBRANCH   1  10
BRANCH   6  47
HETATM   47  C   LIG     1     -11.491   6.306  71.513  1.00  0.00    -0.026 C 
HETATM   48  H   LIG     1     -11.232   5.539  72.258  1.00  0.00     0.042 H 
HETATM   49  H   LIG     1     -12.583   6.282  71.470  1.00  0.00     0.042 H 
BRANCH  47  50
HETATM   50  C   LIG     1     -10.981   7.666  72.003  1.00  0.00    -0.001 C 
HETATM   51  H   LIG     1     -11.814   8.292  72.337  1.00  0.00     0.064 H 
HETATM   52  H   LIG     1     -10.472   8.199  71.190  1.00  0.00     0.064 H 
BRANCH  50  53
HETATM   53  N   LIG     1      -9.997   7.516  73.062  1.00  0.00    -0.360 N 
HETATM   54  C   LIG     1     -10.051   6.507  73.996  1.00  0.00     0.221 C 
HETATM   55  O   LIG     1     -10.919   5.644  73.976  1.00  0.00    -0.273 OA
HETATM   56  H   LIG     1      -9.364   8.288  73.227  1.00  0.00     0.162 HD
BRANCH  54  57
HETATM   57  C   LIG     1      -8.968   6.572  75.077  1.00  0.00     0.024 C 
HETATM   58  H   LIG     1      -8.858   7.645  75.289  1.00  0.00     0.054 H 
HETATM   59  C   LIG     1      -9.422   5.907  76.387  1.00  0.00    -0.051 C 
HETATM   60  C   LIG     1      -9.227   4.392  76.446  1.00  0.00    -0.040 C 
HETATM   61  H   LIG     1     -10.482   6.123  76.580  1.00  0.00     0.034 H 
HETATM   62  H   LIG     1      -8.869   6.360  77.219  1.00  0.00     0.034 H 
HETATM   63  C   LIG     1      -7.852   3.929  75.992  1.00  0.00     0.035 C 
HETATM   64  H   LIG     1      -9.981   3.902  75.822  1.00  0.00     0.036 H 
HETATM   65  H   LIG     1      -9.401   4.071  77.482  1.00  0.00     0.036 H 
HETATM   66  H   LIG     1      -7.853   2.836  75.893  1.00  0.00     0.082 H 
HETATM   67  C   LIG     1      -7.451   4.537  74.653  1.00  0.00    -0.040 C 
HETATM   68  C   LIG     1      -7.614   6.053  74.574  1.00  0.00    -0.051 C 
HETATM   69  H   LIG     1      -8.053   4.079  73.861  1.00  0.00     0.036 H 
HETATM   70  H   LIG     1      -6.401   4.301  74.443  1.00  0.00     0.036 H 
HETATM   71  H   LIG     1      -7.442   6.341  73.530  1.00  0.00     0.034 H 
HETATM   72  H   LIG     1      -6.814   6.541  75.144  1.00  0.00     0.034 H 
BRANCH  63  73
HETATM   73  O   LIG     1      -6.883   4.262  76.977  1.00  0.00    -0.396 OA
HETATM   74  H   LIG     1      -7.151   3.825  77.806  1.00  0.00     0.210 HD
ENDBRANCH  63  73
ENDBRANCH  54  57
ENDBRANCH  50  53
ENDBRANCH  47  50
ENDBRANCH   6  47
TORSDOF 13
ENDMDL
MODEL 7
REMARK minimizedAffinity -3.69932604
REMARK minimizedRMSD -1
REMARK  13 active torsions:
REMARK  status: ('A' for Active; 'I' for Inactive)
REMARK    1  A    between atoms: N_1  and  S_2 
REMARK    2  A    between atoms: S_2  and  C_5 
REMARK    3  A    between atoms: C_8  and  C_9 
REMARK    4  A    between atoms: C_9  and  C_10 
REMARK    5  A    between atoms: C_14  and  N_15 
REMARK       I    between atoms: N_15  and  C_16 
REMARK    6  A    between atoms: C_16  and  C_18 
REMARK    7  A    between atoms: C_18  and  S_19 
REMARK    8  A    between atoms: C_18  and  C_20 
REMARK    9  A    between atoms: C_25  and  C_26 
REMARK   10  A    between atoms: C_26  and  C_27 
REMARK   11  A    between atoms: C_27  and  N_28 
REMARK       I    between atoms: N_28  and  C_29 
REMARK   12  A    between atoms: C_29  and  C_31 
REMARK   13  A    between atoms: C_35  and  O_37 
ROOT
HETATM    1  C   LIG     1      -9.872   4.678  66.953  1.00  0.00    -0.012 A 
HETATM    2  C   LIG     1     -10.651   5.757  66.512  1.00  0.00     0.010 A 
HETATM    3  N   LIG     1     -11.281   6.653  67.308  1.00  0.00    -0.272 NA
HETATM    4  C   LIG     1     -11.169   6.471  68.632  1.00  0.00     0.002 A 
HETATM    5  C   LIG     1     -10.471   5.418  69.192  1.00  0.00    -0.059 A 
HETATM    6  C   LIG     1      -9.813   4.494  68.355  1.00  0.00    -0.046 A 
HETATM    7  H   LIG     1     -10.799   5.960  65.453  1.00  0.00     0.115 H 
HETATM    8  H   LIG     1     -11.678   7.204  69.251  1.00  0.00     0.114 H 
HETATM    9  H   LIG     1     -10.446   5.321  70.274  1.00  0.00     0.086 H 
ENDROOT
BRANCH   1  10
HETATM   10  C   LIG     1      -9.153   3.783  65.943  1.00  0.00     0.093 C 
HETATM   11  H   LIG     1      -9.146   2.757  66.318  1.00  0.00     0.078 H 
BRANCH  10  12
HETATM   12  C   LIG     1      -9.735   3.816  64.518  1.00  0.00     0.240 C 
HETATM   13  N   LIG     1      -8.820   4.218  63.547  1.00  0.00    -0.326 N 
HETATM   14  H   LIG     1      -7.854   3.948  63.697  1.00  0.00     0.169 HD
HETATM   15  O   LIG     1     -10.922   3.580  64.293  1.00  0.00    -0.272 OA
BRANCH  13  16
HETATM   16  C   LIG     1      -9.207   4.375  62.200  1.00  0.00     0.035 A 
HETATM   17  C   LIG     1      -9.227   3.305  61.308  1.00  0.00    -0.057 A 
HETATM   18  C   LIG     1      -9.698   3.490  60.003  1.00  0.00    -0.080 A 
HETATM   19  H   LIG     1      -8.912   2.316  61.625  1.00  0.00     0.086 H 
HETATM   20  C   LIG     1     -10.085   4.757  59.566  1.00  0.00    -0.076 A 
HETATM   21  H   LIG     1      -9.748   2.648  59.318  1.00  0.00     0.083 H 
HETATM   22  C   LIG     1      -9.995   5.847  60.434  1.00  0.00    -0.052 A 
HETATM   23  H   LIG     1     -10.432   4.893  58.544  1.00  0.00     0.084 H 
HETATM   24  C   LIG     1      -9.608   5.630  61.763  1.00  0.00    -0.051 A 
HETATM   25  H   LIG     1      -9.551   6.478  62.431  1.00  0.00     0.087 H 
BRANCH  22  26
HETATM   26  C   LIG     1     -10.306   7.247  59.973  1.00  0.00    -0.017 C 
HETATM   27  H   LIG     1     -10.497   7.254  58.892  1.00  0.00     0.047 H 
HETATM   28  H   LIG     1     -11.251   7.567  60.430  1.00  0.00     0.047 H 
BRANCH  26  29
HETATM   29  C   LIG     1      -9.207   8.229  60.287  1.00  0.00    -0.054 A 
HETATM   30  C   LIG     1      -9.459   9.348  61.095  1.00  0.00    -0.075 A 
HETATM   31  C   LIG     1      -8.447  10.257  61.384  1.00  0.00    -0.060 A 
HETATM   32  H   LIG     1     -10.457   9.520  61.488  1.00  0.00     0.084 H 
HETATM   33  C   LIG     1      -7.178  10.049  60.855  1.00  0.00     0.074 A 
HETATM   34  H   LIG     1      -8.663  11.121  62.010  1.00  0.00     0.085 H 
HETATM   35  C   LIG     1      -6.901   8.942  60.047  1.00  0.00    -0.060 A 
HETATM   36  C   LIG     1      -7.924   8.033  59.765  1.00  0.00    -0.075 A 
HETATM   37  H   LIG     1      -5.915   8.782  59.630  1.00  0.00     0.085 H 
HETATM   38  H   LIG     1      -7.714   7.175  59.128  1.00  0.00     0.084 H 
BRANCH  33  39
HETATM   39  S   LIG     1      -5.871  11.170  61.237  1.00  0.00     0.239 S 
HETATM   40  O   LIG     1      -6.253  12.497  60.870  1.00  0.00    -0.206 OA
HETATM   41  O   LIG     1      -4.610  10.576  60.817  1.00  0.00    -0.206 OA
BRANCH  39  42
HETATM   42  N   LIG     1      -5.864  11.120  62.913  1.00  0.00    -0.225 NA
HETATM   43  H   LIG     1      -6.099  12.040  63.284  1.00  0.00     0.136 HD
HETATM   44  H   LIG     1      -4.983  10.740  63.254  1.00  0.00     0.136 HD
ENDBRANCH  39  42
ENDBRANCH  33  39
ENDBRANCH  26  29
ENDBRANCH  22  26
ENDBRANCH  13  16
ENDBRANCH  10  12
BRANCH  10  45
HETATM   45  S   LIG     1      -7.357   4.192  65.751  1.00  0.00    -0.163 SA
HETATM   46  H   LIG     1      -7.541   5.158  64.831  1.00  0.00     0.102 HD
ENDBRANCH  10  45
ENDBRANCH   1  10
BRANCH   6  47
HETATM   47  C   LIG     1      -9.132   3.328  69.043  1.00  0.00    -0.026 C 
HETATM   48  H   LIG     1      -9.056   2.489  68.336  1.00  0.00     0.042 H 
HETATM   49  H   LIG     1      -9.743   2.937  69.861  1.00  0.00     0.042 H 
BRANCH  47  50
HETATM   50  C   LIG     1      -7.726   3.702  69.524  1.00  0.00    -0.001 C 
HETATM   51  H   LIG     1      -7.280   4.451  68.864  1.00  0.00     0.064 H 
HETATM   52  H   LIG     1      -7.072   2.822  69.514  1.00  0.00     0.064 H 
BRANCH  50  53
HETATM   53  N   LIG     1      -7.740   4.176  70.898  1.00  0.00    -0.360 N 
HETATM   54  C   LIG     1      -7.517   5.491  71.238  1.00  0.00     0.221 C 
HETATM   55  O   LIG     1      -7.322   6.358  70.398  1.00  0.00    -0.273 OA
HETATM   56  H   LIG     1      -7.728   3.481  71.634  1.00  0.00     0.162 HD
BRANCH  54  57
HETATM   57  C   LIG     1      -7.496   5.770  72.744  1.00  0.00     0.024 C 
HETATM   58  H   LIG     1      -6.442   5.641  73.031  1.00  0.00     0.054 H 
HETATM   59  C   LIG     1      -7.863   7.230  73.062  1.00  0.00    -0.051 C 
HETATM   60  C   LIG     1      -9.362   7.517  73.147  1.00  0.00    -0.040 C 
HETATM   61  H   LIG     1      -7.427   7.908  72.315  1.00  0.00     0.034 H 
HETATM   62  H   LIG     1      -7.403   7.505  74.019  1.00  0.00     0.034 H 
HETATM   63  C   LIG     1     -10.135   6.514  73.989  1.00  0.00     0.035 C 
HETATM   64  H   LIG     1      -9.790   7.527  72.141  1.00  0.00     0.036 H 
HETATM   65  H   LIG     1      -9.488   8.524  73.567  1.00  0.00     0.036 H 
HETATM   66  H   LIG     1     -11.211   6.682  73.854  1.00  0.00     0.082 H 
HETATM   67  C   LIG     1      -9.817   5.073  73.606  1.00  0.00    -0.040 C 
HETATM   68  C   LIG     1      -8.326   4.752  73.536  1.00  0.00    -0.051 C 
HETATM   69  H   LIG     1     -10.267   4.857  72.631  1.00  0.00     0.036 H 
HETATM   70  H   LIG     1     -10.273   4.391  74.335  1.00  0.00     0.036 H 
HETATM   71  H   LIG     1      -8.233   3.746  73.109  1.00  0.00     0.034 H 
HETATM   72  H   LIG     1      -7.916   4.674  74.550  1.00  0.00     0.034 H 
BRANCH  63  73
HETATM   73  O   LIG     1      -9.845   6.717  75.366  1.00  0.00    -0.396 OA
HETATM   74  H   LIG     1     -10.098   7.633  75.582  1.00  0.00     0.210 HD
ENDBRANCH  63  73
ENDBRANCH  54  57
ENDBRANCH  50  53
ENDBRANCH  47  50
ENDBRANCH   6  47
TORSDOF 13
ENDMDL
