MODEL 1
REMARK minimizedAffinity -8.30301476
REMARK minimizedRMSD -1
REMARK  11 active torsions:
REMARK  status: ('A' for Active; 'I' for Inactive)
REMARK    1  A    between atoms: N_1  and  S_2 
REMARK    2  A    between atoms: S_2  and  C_5 
REMARK    3  A    between atoms: C_8  and  C_9 
REMARK    4  A    between atoms: C_9  and  C_10 
REMARK    5  A    between atoms: C_14  and  N_15 
REMARK       I    between atoms: N_15  and  C_16 
REMARK       I    between atoms: C_16  and  N_18 
REMARK    6  A    between atoms: N_18  and  C_19 
REMARK    7  A    between atoms: C_21  and  C_22 
REMARK    8  A    between atoms: C_22  and  C_23 
REMARK    9  A    between atoms: C_23  and  N_24 
REMARK       I    between atoms: N_24  and  C_25 
REMARK   10  A    between atoms: C_25  and  C_27 
REMARK   11  A    between atoms: C_30  and  O_31 
ROOT
HETATM    1  C   LIG     1      -8.987   9.953  61.334  1.00  0.00     0.054 A 
HETATM    2  C   LIG     1      -7.827  10.712  61.498  1.00  0.00    -0.048 A 
HETATM    3  C   LIG     1      -6.664  10.395  60.787  1.00  0.00    -0.037 A 
HETATM    4  C   LIG     1      -6.734   9.317  59.910  1.00  0.00     0.008 A 
HETATM    5  N   LIG     1      -7.842   8.565  59.716  1.00  0.00    -0.270 NA
HETATM    6  C   LIG     1      -8.944   8.892  60.438  1.00  0.00     0.028 A 
HETATM    7  H   LIG     1      -7.810  11.519  62.225  1.00  0.00     0.087 H 
HETATM    8  H   LIG     1      -5.872   9.007  59.323  1.00  0.00     0.115 H 
HETATM    9  H   LIG     1      -9.816   8.278  60.232  1.00  0.00     0.118 H 
ENDROOT
BRANCH   1  10
HETATM   10  N   LIG     1     -10.140  10.340  62.042  1.00  0.00    -0.307 N 
HETATM   11  C   LIG     1     -10.117  11.089  63.209  1.00  0.00     0.325 C 
HETATM   12  N   LIG     1     -11.409  11.270  63.668  1.00  0.00    -0.309 N 
HETATM   13  O   LIG     1      -9.104  11.519  63.740  1.00  0.00    -0.247 OA
HETATM   14  H   LIG     1     -11.950  10.420  63.599  1.00  0.00     0.170 HD
HETATM   15  H   LIG     1     -10.967  10.513  61.491  1.00  0.00     0.170 HD
BRANCH  12  16
HETATM   16  C   LIG     1     -11.759  12.129  64.734  1.00  0.00     0.036 A 
HETATM   17  C   LIG     1     -12.511  13.260  64.418  1.00  0.00    -0.057 A 
HETATM   18  C   LIG     1     -12.834  14.181  65.408  1.00  0.00    -0.080 A 
HETATM   19  H   LIG     1     -12.891  13.419  63.414  1.00  0.00     0.086 H 
HETATM   20  C   LIG     1     -12.355  14.009  66.707  1.00  0.00    -0.076 A 
HETATM   21  H   LIG     1     -13.449  15.045  65.175  1.00  0.00     0.083 H 
HETATM   22  C   LIG     1     -11.579  12.893  67.057  1.00  0.00    -0.052 A 
HETATM   23  H   LIG     1     -12.599  14.776  67.437  1.00  0.00     0.084 H 
HETATM   24  C   LIG     1     -11.305  11.937  66.051  1.00  0.00    -0.051 A 
HETATM   25  H   LIG     1     -10.697  11.068  66.288  1.00  0.00     0.087 H 
BRANCH  22  26
HETATM   26  C   LIG     1     -11.008  12.712  68.464  1.00  0.00    -0.017 C 
HETATM   27  H   LIG     1      -9.922  12.574  68.383  1.00  0.00     0.047 H 
HETATM   28  H   LIG     1     -11.167  13.643  69.023  1.00  0.00     0.047 H 
BRANCH  26  29
HETATM   29  C   LIG     1     -11.569  11.559  69.295  1.00  0.00    -0.054 A 
HETATM   30  C   LIG     1     -12.424  11.819  70.379  1.00  0.00    -0.075 A 
HETATM   31  C   LIG     1     -12.816  10.790  71.245  1.00  0.00    -0.060 A 
HETATM   32  H   LIG     1     -12.755  12.838  70.574  1.00  0.00     0.084 H 
HETATM   33  C   LIG     1     -12.361   9.487  71.020  1.00  0.00     0.074 A 
HETATM   34  H   LIG     1     -13.438  11.048  72.099  1.00  0.00     0.085 H 
HETATM   35  C   LIG     1     -11.569   9.200  69.911  1.00  0.00    -0.060 A 
HETATM   36  C   LIG     1     -11.178  10.232  69.051  1.00  0.00    -0.075 A 
HETATM   37  H   LIG     1     -11.233   8.185  69.737  1.00  0.00     0.085 H 
HETATM   38  H   LIG     1     -10.531   9.996  68.211  1.00  0.00     0.084 H 
BRANCH  33  39
HETATM   39  S   LIG     1     -12.671   8.191  72.194  1.00  0.00     0.239 S 
HETATM   40  O   LIG     1     -11.451   7.941  72.913  1.00  0.00    -0.206 OA
HETATM   41  O   LIG     1     -13.374   7.120  71.507  1.00  0.00    -0.206 OA
BRANCH  39  42
HETATM   42  N   LIG     1     -13.800   8.878  73.248  1.00  0.00    -0.225 NA
HETATM   43  H   LIG     1     -13.478   8.981  74.211  1.00  0.00     0.136 HD
HETATM   44  H   LIG     1     -14.714   8.408  73.167  1.00  0.00     0.136 HD
ENDBRANCH  39  42
ENDBRANCH  33  39
ENDBRANCH  26  29
ENDBRANCH  22  26
ENDBRANCH  12  16
ENDBRANCH   1  10
BRANCH   3  45
HETATM   45  C   LIG     1      -5.373  11.143  61.011  1.00  0.00    -0.025 C 
HETATM   46  H   LIG     1      -5.575  12.093  61.521  1.00  0.00     0.042 H 
HETATM   47  H   LIG     1      -4.977  11.413  60.021  1.00  0.00     0.042 H 
BRANCH  45  48
HETATM   48  C   LIG     1      -4.287  10.368  61.775  1.00  0.00    -0.001 C 
HETATM   49  H   LIG     1      -3.703  11.081  62.365  1.00  0.00     0.064 H 
HETATM   50  H   LIG     1      -3.598   9.879  61.078  1.00  0.00     0.064 H 
BRANCH  48  51
HETATM   51  N   LIG     1      -4.801   9.373  62.712  1.00  0.00    -0.360 N 
HETATM   52  C   LIG     1      -5.145   9.716  64.006  1.00  0.00     0.221 C 
HETATM   53  O   LIG     1      -5.005  10.862  64.435  1.00  0.00    -0.273 OA
HETATM   54  H   LIG     1      -5.173   8.513  62.329  1.00  0.00     0.162 HD
BRANCH  52  55
HETATM   55  C   LIG     1      -5.600   8.543  64.902  1.00  0.00     0.024 C 
HETATM   56  C   LIG     1      -6.507   8.984  66.061  1.00  0.00    -0.051 C 
HETATM   57  C   LIG     1      -8.004   9.116  65.751  1.00  0.00    -0.040 C 
HETATM   58  H   LIG     1      -6.157   9.936  66.482  1.00  0.00     0.034 H 
HETATM   59  H   LIG     1      -6.396   8.249  66.870  1.00  0.00     0.034 H 
HETATM   60  C   LIG     1      -8.590   8.111  64.757  1.00  0.00     0.035 C 
HETATM   61  H   LIG     1      -8.187  10.126  65.368  1.00  0.00     0.036 H 
HETATM   62  H   LIG     1      -8.548   9.041  66.700  1.00  0.00     0.036 H 
HETATM   63  C   LIG     1      -7.633   7.647  63.666  1.00  0.00    -0.040 C 
HETATM   64  H   LIG     1      -9.470   8.562  64.276  1.00  0.00     0.082 H 
HETATM   65  C   LIG     1      -6.225   7.353  64.176  1.00  0.00    -0.051 C 
HETATM   66  H   LIG     1      -7.577   8.404  62.876  1.00  0.00     0.036 H 
HETATM   67  H   LIG     1      -8.024   6.727  63.206  1.00  0.00     0.036 H 
HETATM   68  H   LIG     1      -5.603   7.019  63.340  1.00  0.00     0.034 H 
HETATM   69  H   LIG     1      -6.273   6.506  64.875  1.00  0.00     0.034 H 
HETATM   70  H   LIG     1      -4.662   8.193  65.356  1.00  0.00     0.054 H 
BRANCH  60  71
HETATM   71  O   LIG     1      -9.054   6.954  65.454  1.00  0.00    -0.396 OA
HETATM   72  H   LIG     1     -10.027   7.008  65.468  1.00  0.00     0.210 HD
ENDBRANCH  60  71
ENDBRANCH  52  55
ENDBRANCH  48  51
ENDBRANCH  45  48
ENDBRANCH   3  45
TORSDOF 11
ENDMDL
MODEL 2
REMARK minimizedAffinity -7.22227812
REMARK minimizedRMSD -1
REMARK  11 active torsions:
REMARK  status: ('A' for Active; 'I' for Inactive)
REMARK    1  A    between atoms: N_1  and  S_2 
REMARK    2  A    between atoms: S_2  and  C_5 
REMARK    3  A    between atoms: C_8  and  C_9 
REMARK    4  A    between atoms: C_9  and  C_10 
REMARK    5  A    between atoms: C_14  and  N_15 
REMARK       I    between atoms: N_15  and  C_16 
REMARK       I    between atoms: C_16  and  N_18 
REMARK    6  A    between atoms: N_18  and  C_19 
REMARK    7  A    between atoms: C_21  and  C_22 
REMARK    8  A    between atoms: C_22  and  C_23 
REMARK    9  A    between atoms: C_23  and  N_24 
REMARK       I    between atoms: N_24  and  C_25 
REMARK   10  A    between atoms: C_25  and  C_27 
REMARK   11  A    between atoms: C_30  and  O_31 
ROOT
HETATM    1  C   LIG     1      -8.732   9.688  61.004  1.00  0.00     0.054 A 
HETATM    2  C   LIG     1      -7.571  10.429  61.229  1.00  0.00    -0.048 A 
HETATM    3  C   LIG     1      -6.364  10.060  60.625  1.00  0.00    -0.037 A 
HETATM    4  C   LIG     1      -6.390   8.948  59.788  1.00  0.00     0.008 A 
HETATM    5  N   LIG     1      -7.498   8.211  59.538  1.00  0.00    -0.270 NA
HETATM    6  C   LIG     1      -8.644   8.590  60.157  1.00  0.00     0.028 A 
HETATM    7  H   LIG     1      -7.592  11.265  61.922  1.00  0.00     0.087 H 
HETATM    8  H   LIG     1      -5.493   8.596  59.284  1.00  0.00     0.115 H 
HETATM    9  H   LIG     1      -9.511   7.987  59.907  1.00  0.00     0.118 H 
ENDROOT
BRANCH   1  10
HETATM   10  N   LIG     1      -9.928  10.127  61.603  1.00  0.00    -0.307 N 
HETATM   11  C   LIG     1      -9.978  10.944  62.723  1.00  0.00     0.325 C 
HETATM   12  N   LIG     1     -11.296  11.164  63.077  1.00  0.00    -0.309 N 
HETATM   13  O   LIG     1      -9.000  11.394  63.302  1.00  0.00    -0.247 OA
HETATM   14  H   LIG     1     -11.843  10.317  63.018  1.00  0.00     0.170 HD
HETATM   15  H   LIG     1     -10.710  10.276  60.984  1.00  0.00     0.170 HD
BRANCH  12  16
HETATM   16  C   LIG     1     -11.710  12.087  64.063  1.00  0.00     0.036 A 
HETATM   17  C   LIG     1     -12.272  13.284  63.618  1.00  0.00    -0.057 A 
HETATM   18  C   LIG     1     -12.640  14.263  64.534  1.00  0.00    -0.080 A 
HETATM   19  H   LIG     1     -12.470  13.453  62.564  1.00  0.00     0.086 H 
HETATM   20  C   LIG     1     -12.392  14.078  65.894  1.00  0.00    -0.076 A 
HETATM   21  H   LIG     1     -13.110  15.181  64.195  1.00  0.00     0.083 H 
HETATM   22  C   LIG     1     -11.811  12.896  66.376  1.00  0.00    -0.052 A 
HETATM   23  H   LIG     1     -12.659  14.889  66.567  1.00  0.00     0.084 H 
HETATM   24  C   LIG     1     -11.492  11.886  65.438  1.00  0.00    -0.051 A 
HETATM   25  H   LIG     1     -11.030  10.963  65.779  1.00  0.00     0.087 H 
BRANCH  22  26
HETATM   26  C   LIG     1     -11.490  12.695  67.857  1.00  0.00    -0.017 C 
HETATM   27  H   LIG     1     -11.585  13.662  68.368  1.00  0.00     0.047 H 
HETATM   28  H   LIG     1     -12.252  12.034  68.289  1.00  0.00     0.047 H 
BRANCH  26  29
HETATM   29  C   LIG     1     -10.116  12.118  68.195  1.00  0.00    -0.054 A 
HETATM   30  C   LIG     1     -10.009  10.871  68.834  1.00  0.00    -0.075 A 
HETATM   31  C   LIG     1      -8.772  10.404  69.293  1.00  0.00    -0.060 A 
HETATM   32  H   LIG     1     -10.905  10.278  69.013  1.00  0.00     0.084 H 
HETATM   33  C   LIG     1      -7.626  11.183  69.101  1.00  0.00     0.074 A 
HETATM   34  H   LIG     1      -8.747   9.457  69.827  1.00  0.00     0.085 H 
HETATM   35  C   LIG     1      -7.702  12.389  68.409  1.00  0.00    -0.060 A 
HETATM   36  C   LIG     1      -8.941  12.852  67.956  1.00  0.00    -0.075 A 
HETATM   37  H   LIG     1      -6.806  12.978  68.253  1.00  0.00     0.085 H 
HETATM   38  H   LIG     1      -8.988  13.811  67.448  1.00  0.00     0.084 H 
BRANCH  33  39
HETATM   39  S   LIG     1      -6.072  10.725  69.832  1.00  0.00     0.239 S 
HETATM   40  O   LIG     1      -5.870  11.547  70.995  1.00  0.00    -0.206 OA
HETATM   41  O   LIG     1      -5.079  10.659  68.774  1.00  0.00    -0.206 OA
BRANCH  39  42
HETATM   42  N   LIG     1      -6.326   9.128  70.326  1.00  0.00    -0.225 NA
HETATM   43  H   LIG     1      -6.267   8.978  71.333  1.00  0.00     0.136 HD
HETATM   44  H   LIG     1      -5.745   8.477  69.776  1.00  0.00     0.136 HD
ENDBRANCH  39  42
ENDBRANCH  33  39
ENDBRANCH  26  29
ENDBRANCH  22  26
ENDBRANCH  12  16
ENDBRANCH   1  10
BRANCH   3  45
HETATM   45  C   LIG     1      -5.077  10.789  60.920  1.00  0.00    -0.025 C 
HETATM   46  H   LIG     1      -5.295  11.760  61.385  1.00  0.00     0.042 H 
HETATM   47  H   LIG     1      -4.604  11.020  59.955  1.00  0.00     0.042 H 
BRANCH  45  48
HETATM   48  C   LIG     1      -4.067  10.019  61.786  1.00  0.00    -0.001 C 
HETATM   49  H   LIG     1      -3.463  10.744  62.343  1.00  0.00     0.064 H 
HETATM   50  H   LIG     1      -3.383   9.439  61.158  1.00  0.00     0.064 H 
BRANCH  48  51
HETATM   51  N   LIG     1      -4.672   9.132  62.776  1.00  0.00    -0.360 N 
HETATM   52  C   LIG     1      -5.114   9.612  63.995  1.00  0.00     0.221 C 
HETATM   53  O   LIG     1      -4.990  10.795  64.312  1.00  0.00    -0.273 OA
HETATM   54  H   LIG     1      -5.026   8.240  62.454  1.00  0.00     0.162 HD
BRANCH  52  55
HETATM   55  C   LIG     1      -5.659   8.543  64.967  1.00  0.00     0.024 C 
HETATM   56  C   LIG     1      -6.553   9.129  66.071  1.00  0.00    -0.051 C 
HETATM   57  C   LIG     1      -8.033   9.336  65.722  1.00  0.00    -0.040 C 
HETATM   58  H   LIG     1      -6.146  10.086  66.426  1.00  0.00     0.034 H 
HETATM   59  H   LIG     1      -6.503   8.453  66.935  1.00  0.00     0.034 H 
HETATM   60  C   LIG     1      -8.670   8.298  64.794  1.00  0.00     0.035 C 
HETATM   61  H   LIG     1      -8.142  10.323  65.260  1.00  0.00     0.036 H 
HETATM   62  H   LIG     1      -8.594   9.369  66.663  1.00  0.00     0.036 H 
HETATM   63  C   LIG     1      -7.730   7.691  63.761  1.00  0.00    -0.040 C 
HETATM   64  H   LIG     1      -9.510   8.768  64.263  1.00  0.00     0.082 H 
HETATM   65  C   LIG     1      -6.353   7.344  64.319  1.00  0.00    -0.051 C 
HETATM   66  H   LIG     1      -7.612   8.380  62.918  1.00  0.00     0.036 H 
HETATM   67  H   LIG     1      -8.174   6.766  63.363  1.00  0.00     0.036 H 
HETATM   68  H   LIG     1      -5.742   6.908  63.523  1.00  0.00     0.034 H 
HETATM   69  H   LIG     1      -6.467   6.558  65.078  1.00  0.00     0.034 H 
HETATM   70  H   LIG     1      -4.754   8.167  65.464  1.00  0.00     0.054 H 
BRANCH  60  71
HETATM   71  O   LIG     1      -9.221   7.231  65.567  1.00  0.00    -0.396 OA
HETATM   72  H   LIG     1     -10.187   7.350  65.558  1.00  0.00     0.210 HD
ENDBRANCH  60  71
ENDBRANCH  52  55
ENDBRANCH  48  51
ENDBRANCH  45  48
ENDBRANCH   3  45
TORSDOF 11
ENDMDL
MODEL 3
REMARK minimizedAffinity -7.20607901
REMARK minimizedRMSD -1
REMARK  11 active torsions:
REMARK  status: ('A' for Active; 'I' for Inactive)
REMARK    1  A    between atoms: N_1  and  S_2 
REMARK    2  A    between atoms: S_2  and  C_5 
REMARK    3  A    between atoms: C_8  and  C_9 
REMARK    4  A    between atoms: C_9  and  C_10 
REMARK    5  A    between atoms: C_14  and  N_15 
REMARK       I    between atoms: N_15  and  C_16 
REMARK       I    between atoms: C_16  and  N_18 
REMARK    6  A    between atoms: N_18  and  C_19 
REMARK    7  A    between atoms: C_21  and  C_22 
REMARK    8  A    between atoms: C_22  and  C_23 
REMARK    9  A    between atoms: C_23  and  N_24 
REMARK       I    between atoms: N_24  and  C_25 
REMARK   10  A    between atoms: C_25  and  C_27 
REMARK   11  A    between atoms: C_30  and  O_31 
ROOT
HETATM    1  C   LIG     1      -9.708   5.411  77.318  1.00  0.00     0.054 A 
HETATM    2  C   LIG     1      -9.285   4.114  77.017  1.00  0.00    -0.048 A 
HETATM    3  C   LIG     1      -9.674   3.036  77.821  1.00  0.00    -0.037 A 
HETATM    4  C   LIG     1     -10.504   3.320  78.901  1.00  0.00     0.008 A 
HETATM    5  N   LIG     1     -10.942   4.561  79.217  1.00  0.00    -0.270 NA
HETATM    6  C   LIG     1     -10.528   5.582  78.426  1.00  0.00     0.028 A 
HETATM    7  H   LIG     1      -8.604   3.949  76.187  1.00  0.00     0.087 H 
HETATM    8  H   LIG     1     -10.847   2.537  79.573  1.00  0.00     0.115 H 
HETATM    9  H   LIG     1     -10.925   6.555  78.702  1.00  0.00     0.118 H 
ENDROOT
BRANCH   1  10
HETATM   10  N   LIG     1      -9.322   6.453  76.454  1.00  0.00    -0.307 N 
HETATM   11  C   LIG     1      -9.539   6.442  75.084  1.00  0.00     0.325 C 
HETATM   12  N   LIG     1      -9.015   7.593  74.524  1.00  0.00    -0.309 N 
HETATM   13  O   LIG     1     -10.107   5.548  74.475  1.00  0.00    -0.247 OA
HETATM   14  H   LIG     1      -8.110   7.817  74.912  1.00  0.00     0.170 HD
HETATM   15  H   LIG     1      -9.343   7.385  76.839  1.00  0.00     0.170 HD
BRANCH  12  16
HETATM   16  C   LIG     1      -9.214   7.984  73.181  1.00  0.00     0.036 A 
HETATM   17  C   LIG     1      -8.075   8.193  72.404  1.00  0.00    -0.057 A 
HETATM   18  C   LIG     1      -8.199   8.641  71.094  1.00  0.00    -0.080 A 
HETATM   19  H   LIG     1      -7.085   7.970  72.788  1.00  0.00     0.086 H 
HETATM   20  C   LIG     1      -9.457   8.944  70.573  1.00  0.00    -0.076 A 
HETATM   21  H   LIG     1      -7.317   8.772  70.473  1.00  0.00     0.083 H 
HETATM   22  C   LIG     1     -10.623   8.765  71.332  1.00  0.00    -0.052 A 
HETATM   23  H   LIG     1      -9.500   9.331  69.558  1.00  0.00     0.084 H 
HETATM   24  C   LIG     1     -10.486   8.255  72.645  1.00  0.00    -0.051 A 
HETATM   25  H   LIG     1     -11.370   8.116  73.262  1.00  0.00     0.087 H 
BRANCH  22  26
HETATM   26  C   LIG     1     -12.006   9.134  70.793  1.00  0.00    -0.017 C 
HETATM   27  H   LIG     1     -12.062   8.827  69.741  1.00  0.00     0.047 H 
HETATM   28  H   LIG     1     -12.755   8.543  71.335  1.00  0.00     0.047 H 
BRANCH  26  29
HETATM   29  C   LIG     1     -12.410  10.605  70.878  1.00  0.00    -0.054 A 
HETATM   30  C   LIG     1     -11.858  11.543  69.989  1.00  0.00    -0.075 A 
HETATM   31  C   LIG     1     -12.094  12.913  70.155  1.00  0.00    -0.060 A 
HETATM   32  H   LIG     1     -11.205  11.206  69.185  1.00  0.00     0.084 H 
HETATM   33  C   LIG     1     -12.899  13.352  71.211  1.00  0.00     0.074 A 
HETATM   34  H   LIG     1     -11.605  13.604  69.473  1.00  0.00     0.085 H 
HETATM   35  C   LIG     1     -13.510  12.432  72.060  1.00  0.00    -0.060 A 
HETATM   36  C   LIG     1     -13.268  11.065  71.891  1.00  0.00    -0.075 A 
HETATM   37  H   LIG     1     -14.144  12.781  72.866  1.00  0.00     0.085 H 
HETATM   38  H   LIG     1     -13.725  10.363  72.584  1.00  0.00     0.084 H 
BRANCH  33  39
HETATM   39  S   LIG     1     -13.070  15.082  71.578  1.00  0.00     0.239 S 
HETATM   40  O   LIG     1     -11.911  15.761  71.065  1.00  0.00    -0.206 OA
HETATM   41  O   LIG     1     -13.465  15.211  72.970  1.00  0.00    -0.206 OA
BRANCH  39  42
HETATM   42  N   LIG     1     -14.422  15.543  70.673  1.00  0.00    -0.225 NA
HETATM   43  H   LIG     1     -14.234  16.234  69.945  1.00  0.00     0.136 HD
HETATM   44  H   LIG     1     -15.209  15.796  71.289  1.00  0.00     0.136 HD
ENDBRANCH  39  42
ENDBRANCH  33  39
ENDBRANCH  26  29
ENDBRANCH  22  26
ENDBRANCH  12  16
ENDBRANCH   1  10
BRANCH   3  45
HETATM   45  C   LIG     1      -9.160   1.640  77.571  1.00  0.00    -0.025 C 
HETATM   46  H   LIG     1      -9.517   1.278  76.598  1.00  0.00     0.042 H 
HETATM   47  H   LIG     1      -9.622   0.983  78.322  1.00  0.00     0.042 H 
BRANCH  45  48
HETATM   48  C   LIG     1      -7.634   1.475  77.653  1.00  0.00    -0.001 C 
HETATM   49  H   LIG     1      -7.208   1.691  76.667  1.00  0.00     0.064 H 
HETATM   50  H   LIG     1      -7.370   0.443  77.903  1.00  0.00     0.064 H 
BRANCH  48  51
HETATM   51  N   LIG     1      -6.978   2.376  78.597  1.00  0.00    -0.360 N 
HETATM   52  C   LIG     1      -6.931   2.090  79.949  1.00  0.00     0.221 C 
HETATM   53  O   LIG     1      -7.464   1.086  80.420  1.00  0.00    -0.273 OA
HETATM   54  H   LIG     1      -6.318   3.047  78.225  1.00  0.00     0.162 HD
BRANCH  52  55
HETATM   55  C   LIG     1      -6.273   3.173  80.831  1.00  0.00     0.024 C 
HETATM   56  C   LIG     1      -5.876   4.433  80.046  1.00  0.00    -0.051 C 
HETATM   57  C   LIG     1      -6.970   5.491  79.844  1.00  0.00    -0.040 C 
HETATM   58  H   LIG     1      -5.474   4.161  79.061  1.00  0.00     0.034 H 
HETATM   59  H   LIG     1      -5.043   4.910  80.580  1.00  0.00     0.034 H 
HETATM   60  C   LIG     1      -7.967   5.675  80.991  1.00  0.00     0.035 C 
HETATM   61  H   LIG     1      -7.530   5.236  78.938  1.00  0.00     0.036 H 
HETATM   62  H   LIG     1      -6.474   6.448  79.642  1.00  0.00     0.036 H 
HETATM   63  C   LIG     1      -8.277   4.413  81.787  1.00  0.00    -0.040 C 
HETATM   64  H   LIG     1      -8.909   6.064  80.581  1.00  0.00     0.082 H 
HETATM   65  C   LIG     1      -7.044   3.566  82.091  1.00  0.00    -0.051 C 
HETATM   66  H   LIG     1      -9.006   3.803  81.244  1.00  0.00     0.036 H 
HETATM   67  H   LIG     1      -8.738   4.692  82.746  1.00  0.00     0.036 H 
HETATM   68  H   LIG     1      -7.346   2.688  82.668  1.00  0.00     0.034 H 
HETATM   69  H   LIG     1      -6.372   4.142  82.743  1.00  0.00     0.034 H 
HETATM   70  H   LIG     1      -5.336   2.700  81.156  1.00  0.00     0.054 H 
BRANCH  60  71
HETATM   71  O   LIG     1      -7.480   6.660  81.902  1.00  0.00    -0.396 OA
HETATM   72  H   LIG     1      -8.008   7.465  81.752  1.00  0.00     0.210 HD
ENDBRANCH  60  71
ENDBRANCH  52  55
ENDBRANCH  48  51
ENDBRANCH  45  48
ENDBRANCH   3  45
TORSDOF 11
ENDMDL
MODEL 4
REMARK minimizedAffinity -7.13268709
REMARK minimizedRMSD -1
REMARK  11 active torsions:
REMARK  status: ('A' for Active; 'I' for Inactive)
REMARK    1  A    between atoms: N_1  and  S_2 
REMARK    2  A    between atoms: S_2  and  C_5 
REMARK    3  A    between atoms: C_8  and  C_9 
REMARK    4  A    between atoms: C_9  and  C_10 
REMARK    5  A    between atoms: C_14  and  N_15 
REMARK       I    between atoms: N_15  and  C_16 
REMARK       I    between atoms: C_16  and  N_18 
REMARK    6  A    between atoms: N_18  and  C_19 
REMARK    7  A    between atoms: C_21  and  C_22 
REMARK    8  A    between atoms: C_22  and  C_23 
REMARK    9  A    between atoms: C_23  and  N_24 
REMARK       I    between atoms: N_24  and  C_25 
REMARK   10  A    between atoms: C_25  and  C_27 
REMARK   11  A    between atoms: C_30  and  O_31 
ROOT
HETATM    1  C   LIG     1      -4.873  15.416  58.410  1.00  0.00     0.054 A 
HETATM    2  C   LIG     1      -5.806  16.319  57.895  1.00  0.00    -0.048 A 
HETATM    3  C   LIG     1      -5.537  17.025  56.717  1.00  0.00    -0.037 A 
HETATM    4  C   LIG     1      -4.321  16.767  56.090  1.00  0.00     0.008 A 
HETATM    5  N   LIG     1      -3.398  15.893  56.553  1.00  0.00    -0.270 NA
HETATM    6  C   LIG     1      -3.688  15.242  57.707  1.00  0.00     0.028 A 
HETATM    7  H   LIG     1      -6.723  16.516  58.443  1.00  0.00     0.087 H 
HETATM    8  H   LIG     1      -4.038  17.277  55.173  1.00  0.00     0.115 H 
HETATM    9  H   LIG     1      -2.930  14.533  58.027  1.00  0.00     0.118 H 
ENDROOT
BRANCH   1  10
HETATM   10  N   LIG     1      -5.212  14.702  59.575  1.00  0.00    -0.307 N 
HETATM   11  C   LIG     1      -5.492  13.344  59.596  1.00  0.00     0.325 C 
HETATM   12  N   LIG     1      -5.817  12.959  60.884  1.00  0.00    -0.309 N 
HETATM   13  O   LIG     1      -5.453  12.609  58.620  1.00  0.00    -0.247 OA
HETATM   14  H   LIG     1      -6.428  13.629  61.329  1.00  0.00     0.170 HD
HETATM   15  H   LIG     1      -4.790  15.021  60.434  1.00  0.00     0.170 HD
BRANCH  12  16
HETATM   16  C   LIG     1      -5.987  11.617  61.292  1.00  0.00     0.036 A 
HETATM   17  C   LIG     1      -5.100  10.676  60.771  1.00  0.00    -0.057 A 
HETATM   18  C   LIG     1      -5.251   9.330  61.080  1.00  0.00    -0.080 A 
HETATM   19  H   LIG     1      -4.258  10.979  60.156  1.00  0.00     0.086 H 
HETATM   20  C   LIG     1      -6.327   8.907  61.861  1.00  0.00    -0.076 A 
HETATM   21  H   LIG     1      -4.542   8.597  60.705  1.00  0.00     0.083 H 
HETATM   22  C   LIG     1      -7.251   9.823  62.387  1.00  0.00    -0.052 A 
HETATM   23  H   LIG     1      -6.427   7.840  62.042  1.00  0.00     0.084 H 
HETATM   24  C   LIG     1      -7.052  11.196  62.109  1.00  0.00    -0.051 A 
HETATM   25  H   LIG     1      -7.757  11.929  62.492  1.00  0.00     0.087 H 
BRANCH  22  26
HETATM   26  C   LIG     1      -8.461   9.374  63.207  1.00  0.00    -0.017 C 
HETATM   27  H   LIG     1      -9.042   8.662  62.608  1.00  0.00     0.047 H 
HETATM   28  H   LIG     1      -8.098   8.826  64.085  1.00  0.00     0.047 H 
BRANCH  26  29
HETATM   29  C   LIG     1      -9.412  10.468  63.691  1.00  0.00    -0.054 A 
HETATM   30  C   LIG     1     -10.447  10.926  62.857  1.00  0.00    -0.075 A 
HETATM   31  C   LIG     1     -11.223  12.033  63.220  1.00  0.00    -0.060 A 
HETATM   32  H   LIG     1     -10.622  10.441  61.898  1.00  0.00     0.084 H 
HETATM   33  C   LIG     1     -10.973  12.683  64.434  1.00  0.00     0.074 A 
HETATM   34  H   LIG     1     -11.978  12.382  62.520  1.00  0.00     0.085 H 
HETATM   35  C   LIG     1      -9.998  12.200  65.303  1.00  0.00    -0.060 A 
HETATM   36  C   LIG     1      -9.224  11.096  64.933  1.00  0.00    -0.075 A 
HETATM   37  H   LIG     1      -9.822  12.702  66.247  1.00  0.00     0.085 H 
HETATM   38  H   LIG     1      -8.444  10.754  65.608  1.00  0.00     0.084 H 
BRANCH  33  39
HETATM   39  S   LIG     1     -11.798  14.201  64.849  1.00  0.00     0.239 S 
HETATM   40  O   LIG     1     -10.794  15.175  65.180  1.00  0.00    -0.206 OA
HETATM   41  O   LIG     1     -12.879  13.889  65.769  1.00  0.00    -0.206 OA
BRANCH  39  42
HETATM   42  N   LIG     1     -12.544  14.651  63.400  1.00  0.00    -0.225 NA
HETATM   43  H   LIG     1     -12.212  15.531  63.003  1.00  0.00     0.136 HD
HETATM   44  H   LIG     1     -13.571  14.597  63.482  1.00  0.00     0.136 HD
ENDBRANCH  39  42
ENDBRANCH  33  39
ENDBRANCH  26  29
ENDBRANCH  22  26
ENDBRANCH  12  16
ENDBRANCH   1  10
BRANCH   3  45
HETATM   45  C   LIG     1      -6.488  18.069  56.188  1.00  0.00    -0.025 C 
HETATM   46  H   LIG     1      -7.491  17.907  56.603  1.00  0.00     0.042 H 
HETATM   47  H   LIG     1      -6.583  17.905  55.105  1.00  0.00     0.042 H 
BRANCH  45  48
HETATM   48  C   LIG     1      -6.062  19.528  56.424  1.00  0.00    -0.001 C 
HETATM   49  H   LIG     1      -6.960  20.122  56.626  1.00  0.00     0.064 H 
HETATM   50  H   LIG     1      -5.591  19.943  55.528  1.00  0.00     0.064 H 
BRANCH  48  51
HETATM   51  N   LIG     1      -5.169  19.720  57.563  1.00  0.00    -0.360 N 
HETATM   52  C   LIG     1      -5.664  19.965  58.831  1.00  0.00     0.221 C 
HETATM   53  O   LIG     1      -6.871  20.064  59.050  1.00  0.00    -0.273 OA
HETATM   54  H   LIG     1      -4.217  19.386  57.476  1.00  0.00     0.162 HD
BRANCH  52  55
HETATM   55  C   LIG     1      -4.598  20.224  59.918  1.00  0.00     0.024 C 
HETATM   56  C   LIG     1      -4.853  19.438  61.214  1.00  0.00    -0.051 C 
HETATM   57  C   LIG     1      -4.322  17.999  61.262  1.00  0.00    -0.040 C 
HETATM   58  H   LIG     1      -5.926  19.417  61.445  1.00  0.00     0.034 H 
HETATM   59  H   LIG     1      -4.388  19.995  62.038  1.00  0.00     0.034 H 
HETATM   60  C   LIG     1      -2.999  17.731  60.539  1.00  0.00     0.035 C 
HETATM   61  H   LIG     1      -5.085  17.337  60.839  1.00  0.00     0.036 H 
HETATM   62  H   LIG     1      -4.218  17.719  62.317  1.00  0.00     0.036 H 
HETATM   63  C   LIG     1      -2.756  18.583  59.299  1.00  0.00    -0.040 C 
HETATM   64  H   LIG     1      -2.967  16.673  60.243  1.00  0.00     0.082 H 
HETATM   65  C   LIG     1      -3.144  20.047  59.481  1.00  0.00    -0.051 C 
HETATM   66  H   LIG     1      -3.310  18.168  58.451  1.00  0.00     0.036 H 
HETATM   67  H   LIG     1      -1.688  18.547  59.037  1.00  0.00     0.036 H 
HETATM   68  H   LIG     1      -2.933  20.592  58.556  1.00  0.00     0.034 H 
HETATM   69  H   LIG     1      -2.495  20.492  60.248  1.00  0.00     0.034 H 
HETATM   70  H   LIG     1      -4.739  21.285  60.164  1.00  0.00     0.054 H 
BRANCH  60  71
HETATM   71  O   LIG     1      -1.907  17.939  61.435  1.00  0.00    -0.396 OA
HETATM   72  H   LIG     1      -1.574  17.057  61.678  1.00  0.00     0.210 HD
ENDBRANCH  60  71
ENDBRANCH  52  55
ENDBRANCH  48  51
ENDBRANCH  45  48
ENDBRANCH   3  45
TORSDOF 11
ENDMDL
MODEL 5
REMARK minimizedAffinity -6.05425501
REMARK minimizedRMSD -1
REMARK  11 active torsions:
REMARK  status: ('A' for Active; 'I' for Inactive)
REMARK    1  A    between atoms: N_1  and  S_2 
REMARK    2  A    between atoms: S_2  and  C_5 
REMARK    3  A    between atoms: C_8  and  C_9 
REMARK    4  A    between atoms: C_9  and  C_10 
REMARK    5  A    between atoms: C_14  and  N_15 
REMARK       I    between atoms: N_15  and  C_16 
REMARK       I    between atoms: C_16  and  N_18 
REMARK    6  A    between atoms: N_18  and  C_19 
REMARK    7  A    between atoms: C_21  and  C_22 
REMARK    8  A    between atoms: C_22  and  C_23 
REMARK    9  A    between atoms: C_23  and  N_24 
REMARK       I    between atoms: N_24  and  C_25 
REMARK   10  A    between atoms: C_25  and  C_27 
REMARK   11  A    between atoms: C_30  and  O_31 
ROOT
HETATM    1  C   LIG     1      -6.123  11.925  60.670  1.00  0.00     0.054 A 
HETATM    2  C   LIG     1      -5.817  10.770  59.947  1.00  0.00    -0.048 A 
HETATM    3  C   LIG     1      -5.044  10.845  58.783  1.00  0.00    -0.037 A 
HETATM    4  C   LIG     1      -4.591  12.106  58.405  1.00  0.00     0.008 A 
HETATM    5  N   LIG     1      -4.859  13.245  59.085  1.00  0.00    -0.270 NA
HETATM    6  C   LIG     1      -5.627  13.133  60.198  1.00  0.00     0.028 A 
HETATM    7  H   LIG     1      -6.227   9.814  60.260  1.00  0.00     0.087 H 
HETATM    8  H   LIG     1      -3.987  12.247  57.512  1.00  0.00     0.115 H 
HETATM    9  H   LIG     1      -5.794  14.068  60.725  1.00  0.00     0.118 H 
ENDROOT
BRANCH   1  10
HETATM   10  N   LIG     1      -6.869  11.788  61.856  1.00  0.00    -0.307 N 
HETATM   11  C   LIG     1      -6.818  10.672  62.678  1.00  0.00     0.325 C 
HETATM   12  N   LIG     1      -7.689  10.839  63.739  1.00  0.00    -0.309 N 
HETATM   13  O   LIG     1      -6.107   9.697  62.485  1.00  0.00    -0.247 OA
HETATM   14  H   LIG     1      -8.570  11.231  63.438  1.00  0.00     0.170 HD
HETATM   15  H   LIG     1      -7.051  12.636  62.370  1.00  0.00     0.170 HD
BRANCH  12  16
HETATM   16  C   LIG     1      -7.758   9.973  64.853  1.00  0.00     0.036 A 
HETATM   17  C   LIG     1      -6.585   9.777  65.580  1.00  0.00    -0.057 A 
HETATM   18  C   LIG     1      -6.567   8.888  66.648  1.00  0.00    -0.080 A 
HETATM   19  H   LIG     1      -5.685  10.342  65.356  1.00  0.00     0.086 H 
HETATM   20  C   LIG     1      -7.704   8.142  66.957  1.00  0.00    -0.076 A 
HETATM   21  H   LIG     1      -5.665   8.758  67.240  1.00  0.00     0.083 H 
HETATM   22  C   LIG     1      -8.898   8.298  66.235  1.00  0.00    -0.052 A 
HETATM   23  H   LIG     1      -7.630   7.429  67.774  1.00  0.00     0.084 H 
HETATM   24  C   LIG     1      -8.916   9.247  65.186  1.00  0.00    -0.051 A 
HETATM   25  H   LIG     1      -9.821   9.382  64.600  1.00  0.00     0.087 H 
BRANCH  22  26
HETATM   26  C   LIG     1     -10.139   7.456  66.530  1.00  0.00    -0.017 C 
HETATM   27  H   LIG     1     -10.958   7.807  65.889  1.00  0.00     0.047 H 
HETATM   28  H   LIG     1      -9.931   6.420  66.236  1.00  0.00     0.047 H 
BRANCH  26  29
HETATM   29  C   LIG     1     -10.642   7.448  67.973  1.00  0.00    -0.054 A 
HETATM   30  C   LIG     1     -10.636   8.631  68.731  1.00  0.00    -0.075 A 
HETATM   31  C   LIG     1     -10.940   8.609  70.098  1.00  0.00    -0.060 A 
HETATM   32  H   LIG     1     -10.351   9.572  68.262  1.00  0.00     0.084 H 
HETATM   33  C   LIG     1     -11.267   7.395  70.712  1.00  0.00     0.074 A 
HETATM   34  H   LIG     1     -10.873   9.540  70.653  1.00  0.00     0.085 H 
HETATM   35  C   LIG     1     -11.345   6.225  69.961  1.00  0.00    -0.060 A 
HETATM   36  C   LIG     1     -11.037   6.253  68.597  1.00  0.00    -0.075 A 
HETATM   37  H   LIG     1     -11.613   5.292  70.443  1.00  0.00     0.085 H 
HETATM   38  H   LIG     1     -11.069   5.325  68.034  1.00  0.00     0.084 H 
BRANCH  33  39
HETATM   39  S   LIG     1     -11.472   7.284  72.473  1.00  0.00     0.239 S 
HETATM   40  O   LIG     1     -10.365   7.963  73.092  1.00  0.00    -0.206 OA
HETATM   41  O   LIG     1     -11.790   5.905  72.804  1.00  0.00    -0.206 OA
BRANCH  39  42
HETATM   42  N   LIG     1     -12.887   8.163  72.761  1.00  0.00    -0.225 NA
HETATM   43  H   LIG     1     -12.762   8.996  73.337  1.00  0.00     0.136 HD
HETATM   44  H   LIG     1     -13.645   7.545  73.087  1.00  0.00     0.136 HD
ENDBRANCH  39  42
ENDBRANCH  33  39
ENDBRANCH  26  29
ENDBRANCH  22  26
ENDBRANCH  12  16
ENDBRANCH   1  10
BRANCH   3  45
HETATM   45  C   LIG     1      -4.772   9.627  57.936  1.00  0.00    -0.025 C 
HETATM   46  H   LIG     1      -4.407   9.933  56.946  1.00  0.00     0.042 H 
HETATM   47  H   LIG     1      -5.737   9.132  57.757  1.00  0.00     0.042 H 
BRANCH  45  48
HETATM   48  C   LIG     1      -3.803   8.602  58.547  1.00  0.00    -0.001 C 
HETATM   49  H   LIG     1      -3.259   8.110  57.733  1.00  0.00     0.064 H 
HETATM   50  H   LIG     1      -4.353   7.825  59.087  1.00  0.00     0.064 H 
BRANCH  48  51
HETATM   51  N   LIG     1      -2.796   9.176  59.435  1.00  0.00    -0.360 N 
HETATM   52  C   LIG     1      -2.804   8.919  60.793  1.00  0.00     0.221 C 
HETATM   53  O   LIG     1      -3.674   8.224  61.318  1.00  0.00    -0.273 OA
HETATM   54  H   LIG     1      -1.939   9.516  59.016  1.00  0.00     0.162 HD
BRANCH  52  55
HETATM   55  C   LIG     1      -1.724   9.658  61.613  1.00  0.00     0.024 C 
HETATM   56  C   LIG     1      -1.198  10.923  60.918  1.00  0.00    -0.051 C 
HETATM   57  C   LIG     1      -2.008  12.210  61.127  1.00  0.00    -0.040 C 
HETATM   58  H   LIG     1      -1.094  10.753  59.838  1.00  0.00     0.034 H 
HETATM   59  H   LIG     1      -0.179  11.106  61.283  1.00  0.00     0.034 H 
HETATM   60  C   LIG     1      -2.662  12.394  62.499  1.00  0.00     0.035 C 
HETATM   61  H   LIG     1      -2.793  12.249  60.364  1.00  0.00     0.036 H 
HETATM   62  H   LIG     1      -1.342  13.058  60.930  1.00  0.00     0.036 H 
HETATM   63  C   LIG     1      -3.104  11.107  63.183  1.00  0.00    -0.040 C 
HETATM   64  H   LIG     1      -3.540  13.045  62.387  1.00  0.00     0.082 H 
HETATM   65  C   LIG     1      -2.088   9.974  63.063  1.00  0.00    -0.051 C 
HETATM   66  H   LIG     1      -4.060  10.776  62.766  1.00  0.00     0.036 H 
HETATM   67  H   LIG     1      -3.267  11.301  64.254  1.00  0.00     0.036 H 
HETATM   68  H   LIG     1      -2.472   9.092  63.583  1.00  0.00     0.034 H 
HETATM   69  H   LIG     1      -1.171  10.264  63.595  1.00  0.00     0.034 H 
HETATM   70  H   LIG     1      -0.889   8.944  61.634  1.00  0.00     0.054 H 
BRANCH  60  71
HETATM   71  O   LIG     1      -1.762  13.071  63.377  1.00  0.00    -0.396 OA
HETATM   72  H   LIG     1      -2.090  13.984  63.464  1.00  0.00     0.210 HD
ENDBRANCH  60  71
ENDBRANCH  52  55
ENDBRANCH  48  51
ENDBRANCH  45  48
ENDBRANCH   3  45
TORSDOF 11
ENDMDL
