MODEL 1
REMARK minimizedAffinity -7.38856268
REMARK minimizedRMSD -1
REMARK  11 active torsions:
REMARK  status: ('A' for Active; 'I' for Inactive)
REMARK    1  A    between atoms: N_1  and  S_2 
REMARK    2  A    between atoms: S_2  and  C_5 
REMARK    3  A    between atoms: C_8  and  C_9 
REMARK    4  A    between atoms: C_9  and  C_10 
REMARK    5  A    between atoms: C_14  and  N_15 
REMARK       I    between atoms: N_15  and  C_16 
REMARK       I    between atoms: C_16  and  N_18 
REMARK    6  A    between atoms: N_18  and  C_19 
REMARK    7  A    between atoms: C_20  and  C_21 
REMARK    8  A    between atoms: C_21  and  C_22 
REMARK    9  A    between atoms: C_22  and  N_23 
REMARK       I    between atoms: N_23  and  C_24 
REMARK   10  A    between atoms: C_24  and  C_26 
REMARK   11  A    between atoms: C_29  and  O_30 
ROOT
HETATM    1  C   LIG     1     -11.309  13.655  67.115  1.00  0.00     0.057 C 
HETATM    2  C   LIG     1     -10.163  14.290  66.787  1.00  0.00    -0.041 C 
HETATM    3  C   LIG     1     -10.006  14.887  65.397  1.00  0.00     0.034 C 
HETATM    4  C   LIG     1     -11.351  15.214  64.778  1.00  0.00     0.246 C 
HETATM    5  O   LIG     1     -11.511  16.263  64.160  1.00  0.00    -0.271 OA
HETATM    6  N   LIG     1     -12.307  14.239  64.895  1.00  0.00    -0.224 NA
HETATM    7  C   LIG     1     -12.272  13.518  65.972  1.00  0.00     0.032 C 
HETATM    8  H   LIG     1      -9.443  14.216  64.746  1.00  0.00     0.054 H 
HETATM    9  H   LIG     1      -9.485  15.847  65.425  1.00  0.00     0.054 H 
HETATM   10  H   LIG     1     -12.977  12.676  66.026  1.00  0.00     0.118 H 
ENDROOT
BRANCH   1  11
HETATM   11  N   LIG     1     -11.535  13.107  68.363  1.00  0.00    -0.307 N 
HETATM   12  C   LIG     1     -11.725  11.773  68.710  1.00  0.00     0.325 C 
HETATM   13  N   LIG     1     -11.954  11.673  70.080  1.00  0.00    -0.309 N 
HETATM   14  O   LIG     1     -11.716  10.852  67.906  1.00  0.00    -0.247 OA
HETATM   15  H   LIG     1     -11.734  12.485  70.635  1.00  0.00     0.170 HD
HETATM   16  H   LIG     1     -11.702  13.750  69.118  1.00  0.00     0.170 HD
BRANCH  13  17
HETATM   17  C   LIG     1     -12.251  10.527  70.848  1.00  0.00     0.036 A 
HETATM   18  C   LIG     1     -13.434  10.350  71.561  1.00  0.00    -0.057 A 
HETATM   19  C   LIG     1     -13.685   9.136  72.206  1.00  0.00    -0.080 A 
HETATM   20  H   LIG     1     -14.197  11.120  71.598  1.00  0.00     0.086 H 
HETATM   21  C   LIG     1     -12.743   8.106  72.173  1.00  0.00    -0.076 A 
HETATM   22  H   LIG     1     -14.634   8.988  72.718  1.00  0.00     0.083 H 
HETATM   23  C   LIG     1     -11.531   8.273  71.492  1.00  0.00    -0.052 A 
HETATM   24  H   LIG     1     -12.971   7.166  72.671  1.00  0.00     0.084 H 
HETATM   25  C   LIG     1     -11.298   9.492  70.836  1.00  0.00    -0.051 A 
HETATM   26  H   LIG     1     -10.356   9.624  70.307  1.00  0.00     0.087 H 
BRANCH  23  27
HETATM   27  C   LIG     1     -10.516   7.149  71.421  1.00  0.00    -0.017 C 
HETATM   28  H   LIG     1      -9.541   7.540  71.743  1.00  0.00     0.047 H 
HETATM   29  H   LIG     1     -10.765   6.370  72.153  1.00  0.00     0.047 H 
BRANCH  27  30
HETATM   30  C   LIG     1     -10.388   6.509  70.052  1.00  0.00    -0.054 A 
HETATM   31  C   LIG     1      -9.374   5.572  69.796  1.00  0.00    -0.075 A 
HETATM   32  C   LIG     1      -9.245   4.980  68.539  1.00  0.00    -0.060 A 
HETATM   33  H   LIG     1      -8.674   5.289  70.579  1.00  0.00     0.084 H 
HETATM   34  C   LIG     1     -10.128   5.334  67.518  1.00  0.00     0.074 A 
HETATM   35  H   LIG     1      -8.461   4.244  68.370  1.00  0.00     0.085 H 
HETATM   36  C   LIG     1     -11.138   6.272  67.747  1.00  0.00    -0.060 A 
HETATM   37  C   LIG     1     -11.264   6.860  69.012  1.00  0.00    -0.075 A 
HETATM   38  H   LIG     1     -11.827   6.545  66.952  1.00  0.00     0.085 H 
HETATM   39  H   LIG     1     -12.049   7.595  69.174  1.00  0.00     0.084 H 
BRANCH  34  40
HETATM   40  S   LIG     1      -9.991   4.577  65.924  1.00  0.00     0.239 S 
HETATM   41  O   LIG     1      -9.723   3.181  66.097  1.00  0.00    -0.206 OA
HETATM   42  O   LIG     1      -9.194   5.430  65.055  1.00  0.00    -0.206 OA
BRANCH  40  43
HETATM   43  N   LIG     1     -11.557   4.696  65.327  1.00  0.00    -0.225 NA
HETATM   44  H   LIG     1     -11.918   3.761  65.140  1.00  0.00     0.136 HD
HETATM   45  H   LIG     1     -11.570   5.313  64.515  1.00  0.00     0.136 HD
ENDBRANCH  40  43
ENDBRANCH  34  40
ENDBRANCH  27  30
ENDBRANCH  23  27
ENDBRANCH  13  17
ENDBRANCH   1  11
BRANCH   2  46
HETATM   46  C   LIG     1      -8.968  14.439  67.715  1.00  0.00    -0.027 C 
HETATM   47  H   LIG     1      -9.328  14.369  68.749  1.00  0.00     0.042 H 
HETATM   48  H   LIG     1      -8.515  15.430  67.596  1.00  0.00     0.042 H 
BRANCH  46  49
HETATM   49  C   LIG     1      -7.853  13.409  67.508  1.00  0.00    -0.001 C 
HETATM   50  H   LIG     1      -6.902  13.769  67.922  1.00  0.00     0.064 H 
HETATM   51  H   LIG     1      -7.679  13.257  66.439  1.00  0.00     0.064 H 
BRANCH  49  52
HETATM   52  N   LIG     1      -8.185  12.138  68.131  1.00  0.00    -0.360 N 
HETATM   53  C   LIG     1      -8.161  10.969  67.412  1.00  0.00     0.221 C 
HETATM   54  O   LIG     1      -7.951  10.958  66.204  1.00  0.00    -0.273 OA
HETATM   55  H   LIG     1      -8.221  12.078  69.141  1.00  0.00     0.162 HD
BRANCH  53  56
HETATM   56  C   LIG     1      -8.512   9.712  68.217  1.00  0.00     0.024 C 
HETATM   57  C   LIG     1      -8.058   8.451  67.465  1.00  0.00    -0.051 C 
HETATM   58  C   LIG     1      -6.541   8.235  67.523  1.00  0.00    -0.040 C 
HETATM   59  H   LIG     1      -8.371   8.501  66.414  1.00  0.00     0.034 H 
HETATM   60  H   LIG     1      -8.565   7.577  67.890  1.00  0.00     0.034 H 
HETATM   61  C   LIG     1      -5.986   8.288  68.946  1.00  0.00     0.035 C 
HETATM   62  H   LIG     1      -6.038   8.996  66.915  1.00  0.00     0.036 H 
HETATM   63  H   LIG     1      -6.312   7.263  67.070  1.00  0.00     0.036 H 
HETATM   64  C   LIG     1      -6.452   9.531  69.706  1.00  0.00    -0.040 C 
HETATM   65  H   LIG     1      -4.891   8.290  68.903  1.00  0.00     0.082 H 
HETATM   66  C   LIG     1      -7.968   9.721  69.653  1.00  0.00    -0.051 C 
HETATM   67  H   LIG     1      -5.966  10.422  69.287  1.00  0.00     0.036 H 
HETATM   68  H   LIG     1      -6.147   9.458  70.756  1.00  0.00     0.036 H 
HETATM   69  H   LIG     1      -8.226  10.646  70.180  1.00  0.00     0.034 H 
HETATM   70  H   LIG     1      -8.451   8.914  70.220  1.00  0.00     0.034 H 
HETATM   71  H   LIG     1      -9.610   9.695  68.268  1.00  0.00     0.054 H 
BRANCH  61  72
HETATM   72  O   LIG     1      -6.360   7.106  69.656  1.00  0.00    -0.396 OA
HETATM   73  H   LIG     1      -7.330   7.048  69.655  1.00  0.00     0.210 HD
ENDBRANCH  61  72
ENDBRANCH  53  56
ENDBRANCH  49  52
ENDBRANCH  46  49
ENDBRANCH   2  46
TORSDOF 11
ENDMDL
MODEL 2
REMARK minimizedAffinity -6.75123978
REMARK minimizedRMSD -1
REMARK  11 active torsions:
REMARK  status: ('A' for Active; 'I' for Inactive)
REMARK    1  A    between atoms: N_1  and  S_2 
REMARK    2  A    between atoms: S_2  and  C_5 
REMARK    3  A    between atoms: C_8  and  C_9 
REMARK    4  A    between atoms: C_9  and  C_10 
REMARK    5  A    between atoms: C_14  and  N_15 
REMARK       I    between atoms: N_15  and  C_16 
REMARK       I    between atoms: C_16  and  N_18 
REMARK    6  A    between atoms: N_18  and  C_19 
REMARK    7  A    between atoms: C_20  and  C_21 
REMARK    8  A    between atoms: C_21  and  C_22 
REMARK    9  A    between atoms: C_22  and  N_23 
REMARK       I    between atoms: N_23  and  C_24 
REMARK   10  A    between atoms: C_24  and  C_26 
REMARK   11  A    between atoms: C_29  and  O_30 
ROOT
HETATM    1  C   LIG     1      -8.092   9.037  61.395  1.00  0.00     0.057 C 
HETATM    2  C   LIG     1      -6.802   8.901  61.771  1.00  0.00    -0.041 C 
HETATM    3  C   LIG     1      -6.039   7.641  61.394  1.00  0.00     0.034 C 
HETATM    4  C   LIG     1      -6.625   6.985  60.159  1.00  0.00     0.246 C 
HETATM    5  O   LIG     1      -5.887   6.534  59.287  1.00  0.00    -0.271 OA
HETATM    6  N   LIG     1      -7.991   6.873  60.141  1.00  0.00    -0.224 NA
HETATM    7  C   LIG     1      -8.658   7.820  60.724  1.00  0.00     0.032 C 
HETATM    8  H   LIG     1      -6.020   6.933  62.225  1.00  0.00     0.054 H 
HETATM    9  H   LIG     1      -5.006   7.860  61.115  1.00  0.00     0.054 H 
HETATM   10  H   LIG     1      -9.747   7.686  60.794  1.00  0.00     0.118 H 
ENDROOT
BRANCH   1  11
HETATM   11  N   LIG     1      -8.844  10.161  61.680  1.00  0.00    -0.307 N 
HETATM   12  C   LIG     1      -9.515  10.489  62.854  1.00  0.00     0.325 C 
HETATM   13  N   LIG     1     -10.175  11.704  62.693  1.00  0.00    -0.309 N 
HETATM   14  O   LIG     1      -9.528   9.781  63.851  1.00  0.00    -0.247 OA
HETATM   15  H   LIG     1      -9.909  12.261  61.895  1.00  0.00     0.170 HD
HETATM   16  H   LIG     1      -9.040  10.783  60.914  1.00  0.00     0.170 HD
BRANCH  13  17
HETATM   17  C   LIG     1     -11.018  12.382  63.599  1.00  0.00     0.036 A 
HETATM   18  C   LIG     1     -12.408  12.347  63.548  1.00  0.00    -0.057 A 
HETATM   19  C   LIG     1     -13.160  12.963  64.552  1.00  0.00    -0.080 A 
HETATM   20  H   LIG     1     -12.936  11.815  62.764  1.00  0.00     0.086 H 
HETATM   21  C   LIG     1     -12.529  13.646  65.594  1.00  0.00    -0.076 A 
HETATM   22  H   LIG     1     -14.245  12.887  64.532  1.00  0.00     0.083 H 
HETATM   23  C   LIG     1     -11.132  13.725  65.648  1.00  0.00    -0.052 A 
HETATM   24  H   LIG     1     -13.139  14.103  66.371  1.00  0.00     0.084 H 
HETATM   25  C   LIG     1     -10.389  13.090  64.641  1.00  0.00    -0.051 A 
HETATM   26  H   LIG     1      -9.304  13.151  64.681  1.00  0.00     0.087 H 
BRANCH  23  27
HETATM   27  C   LIG     1     -10.436  14.434  66.793  1.00  0.00    -0.017 C 
HETATM   28  H   LIG     1      -9.436  13.996  66.917  1.00  0.00     0.047 H 
HETATM   29  H   LIG     1     -10.254  15.485  66.530  1.00  0.00     0.047 H 
BRANCH  27  30
HETATM   30  C   LIG     1     -11.188  14.385  68.109  1.00  0.00    -0.054 A 
HETATM   31  C   LIG     1     -11.369  13.165  68.781  1.00  0.00    -0.075 A 
HETATM   32  C   LIG     1     -12.063  13.108  69.990  1.00  0.00    -0.060 A 
HETATM   33  H   LIG     1     -10.963  12.243  68.369  1.00  0.00     0.084 H 
HETATM   34  C   LIG     1     -12.596  14.278  70.532  1.00  0.00     0.074 A 
HETATM   35  H   LIG     1     -12.174  12.153  70.500  1.00  0.00     0.085 H 
HETATM   36  C   LIG     1     -12.438  15.502  69.876  1.00  0.00    -0.060 A 
HETATM   37  C   LIG     1     -11.738  15.551  68.664  1.00  0.00    -0.075 A 
HETATM   38  H   LIG     1     -12.852  16.413  70.300  1.00  0.00     0.085 H 
HETATM   39  H   LIG     1     -11.630  16.509  68.159  1.00  0.00     0.084 H 
BRANCH  34  40
HETATM   40  S   LIG     1     -13.461  14.226  72.076  1.00  0.00     0.239 S 
HETATM   41  O   LIG     1     -13.569  12.863  72.500  1.00  0.00    -0.206 OA
HETATM   42  O   LIG     1     -14.604  15.125  72.015  1.00  0.00    -0.206 OA
BRANCH  40  43
HETATM   43  N   LIG     1     -12.382  14.972  73.124  1.00  0.00    -0.225 NA
HETATM   44  H   LIG     1     -12.127  14.320  73.866  1.00  0.00     0.136 HD
HETATM   45  H   LIG     1     -12.780  15.847  73.465  1.00  0.00     0.136 HD
ENDBRANCH  40  43
ENDBRANCH  34  40
ENDBRANCH  27  30
ENDBRANCH  23  27
ENDBRANCH  13  17
ENDBRANCH   1  11
BRANCH   2  46
HETATM   46  C   LIG     1      -6.033   9.926  62.589  1.00  0.00    -0.027 C 
HETATM   47  H   LIG     1      -6.539  10.894  62.488  1.00  0.00     0.042 H 
HETATM   48  H   LIG     1      -5.019  10.049  62.190  1.00  0.00     0.042 H 
BRANCH  46  49
HETATM   49  C   LIG     1      -5.890   9.594  64.078  1.00  0.00    -0.001 C 
HETATM   50  H   LIG     1      -4.916   9.921  64.463  1.00  0.00     0.064 H 
HETATM   51  H   LIG     1      -5.925   8.511  64.224  1.00  0.00     0.064 H 
BRANCH  49  52
HETATM   52  N   LIG     1      -6.941  10.223  64.862  1.00  0.00    -0.360 N 
HETATM   53  C   LIG     1      -6.670  10.796  66.079  1.00  0.00     0.221 C 
HETATM   54  O   LIG     1      -5.560  10.722  66.595  1.00  0.00    -0.273 OA
HETATM   55  H   LIG     1      -7.827  10.434  64.420  1.00  0.00     0.162 HD
BRANCH  53  56
HETATM   56  C   LIG     1      -7.879  11.438  66.771  1.00  0.00     0.024 C 
HETATM   57  C   LIG     1      -9.018  10.415  66.915  1.00  0.00    -0.051 C 
HETATM   58  C   LIG     1      -8.757   9.383  68.017  1.00  0.00    -0.040 C 
HETATM   59  H   LIG     1      -9.180   9.889  65.965  1.00  0.00     0.034 H 
HETATM   60  H   LIG     1      -9.953  10.946  67.129  1.00  0.00     0.034 H 
HETATM   61  C   LIG     1      -8.384  10.021  69.355  1.00  0.00     0.035 C 
HETATM   62  H   LIG     1      -7.950   8.708  67.706  1.00  0.00     0.036 H 
HETATM   63  H   LIG     1      -9.657   8.768  68.136  1.00  0.00     0.036 H 
HETATM   64  C   LIG     1      -7.265  11.054  69.214  1.00  0.00    -0.040 C 
HETATM   65  H   LIG     1      -8.056   9.237  70.047  1.00  0.00     0.082 H 
HETATM   66  C   LIG     1      -7.550  12.087  68.123  1.00  0.00    -0.051 C 
HETATM   67  H   LIG     1      -6.321  10.545  68.986  1.00  0.00     0.036 H 
HETATM   68  H   LIG     1      -7.128  11.582  70.165  1.00  0.00     0.036 H 
HETATM   69  H   LIG     1      -6.695  12.767  68.049  1.00  0.00     0.034 H 
HETATM   70  H   LIG     1      -8.399  12.711  68.433  1.00  0.00     0.034 H 
HETATM   71  H   LIG     1      -8.222  12.227  66.087  1.00  0.00     0.054 H 
BRANCH  61  72
HETATM   72  O   LIG     1      -9.539  10.620  69.944  1.00  0.00    -0.396 OA
HETATM   73  H   LIG     1      -9.888  11.279  69.321  1.00  0.00     0.210 HD
ENDBRANCH  61  72
ENDBRANCH  53  56
ENDBRANCH  49  52
ENDBRANCH  46  49
ENDBRANCH   2  46
TORSDOF 11
ENDMDL
MODEL 3
REMARK minimizedAffinity -5.86980677
REMARK minimizedRMSD -1
REMARK  11 active torsions:
REMARK  status: ('A' for Active; 'I' for Inactive)
REMARK    1  A    between atoms: N_1  and  S_2 
REMARK    2  A    between atoms: S_2  and  C_5 
REMARK    3  A    between atoms: C_8  and  C_9 
REMARK    4  A    between atoms: C_9  and  C_10 
REMARK    5  A    between atoms: C_14  and  N_15 
REMARK       I    between atoms: N_15  and  C_16 
REMARK       I    between atoms: C_16  and  N_18 
REMARK    6  A    between atoms: N_18  and  C_19 
REMARK    7  A    between atoms: C_20  and  C_21 
REMARK    8  A    between atoms: C_21  and  C_22 
REMARK    9  A    between atoms: C_22  and  N_23 
REMARK       I    between atoms: N_23  and  C_24 
REMARK   10  A    between atoms: C_24  and  C_26 
REMARK   11  A    between atoms: C_29  and  O_30 
ROOT
HETATM    1  C   LIG     1      -7.075  10.026  61.582  1.00  0.00     0.057 C 
HETATM    2  C   LIG     1      -5.904   9.583  62.090  1.00  0.00    -0.041 C 
HETATM    3  C   LIG     1      -5.143   8.482  61.369  1.00  0.00     0.034 C 
HETATM    4  C   LIG     1      -5.482   8.446  59.892  1.00  0.00     0.246 C 
HETATM    5  O   LIG     1      -4.598   8.279  59.056  1.00  0.00    -0.271 OA
HETATM    6  N   LIG     1      -6.816   8.532  59.590  1.00  0.00    -0.224 NA
HETATM    7  C   LIG     1      -7.544   9.255  60.384  1.00  0.00     0.032 C 
HETATM    8  H   LIG     1      -5.337   7.509  61.825  1.00  0.00     0.054 H 
HETATM    9  H   LIG     1      -4.064   8.654  61.390  1.00  0.00     0.054 H 
HETATM   10  H   LIG     1      -8.628   9.250  60.200  1.00  0.00     0.118 H 
ENDROOT
BRANCH   1  11
HETATM   11  N   LIG     1      -7.813  11.037  62.167  1.00  0.00    -0.307 N 
HETATM   12  C   LIG     1      -8.930  10.940  62.991  1.00  0.00     0.325 C 
HETATM   13  N   LIG     1      -9.377  12.215  63.327  1.00  0.00    -0.309 N 
HETATM   14  O   LIG     1      -9.436   9.879  63.330  1.00  0.00    -0.247 OA
HETATM   15  H   LIG     1      -8.746  12.979  63.141  1.00  0.00     0.170 HD
HETATM   16  H   LIG     1      -7.603  11.977  61.878  1.00  0.00     0.170 HD
BRANCH  13  17
HETATM   17  C   LIG     1     -10.505  12.587  64.090  1.00  0.00     0.036 A 
HETATM   18  C   LIG     1     -11.813  12.559  63.615  1.00  0.00    -0.057 A 
HETATM   19  C   LIG     1     -12.875  12.842  64.477  1.00  0.00    -0.080 A 
HETATM   20  H   LIG     1     -12.041  12.280  62.591  1.00  0.00     0.086 H 
HETATM   21  C   LIG     1     -12.637  13.189  65.808  1.00  0.00    -0.076 A 
HETATM   22  H   LIG     1     -13.897  12.768  64.110  1.00  0.00     0.083 H 
HETATM   23  C   LIG     1     -11.327  13.258  66.300  1.00  0.00    -0.052 A 
HETATM   24  H   LIG     1     -13.483  13.390  66.461  1.00  0.00     0.084 H 
HETATM   25  C   LIG     1     -10.270  12.957  65.428  1.00  0.00    -0.051 A 
HETATM   26  H   LIG     1      -9.253  13.010  65.808  1.00  0.00     0.087 H 
BRANCH  23  27
HETATM   27  C   LIG     1     -11.058  13.599  67.753  1.00  0.00    -0.017 C 
HETATM   28  H   LIG     1      -9.987  13.821  67.866  1.00  0.00     0.047 H 
HETATM   29  H   LIG     1     -11.570  14.533  68.021  1.00  0.00     0.047 H 
BRANCH  27  30
HETATM   30  C   LIG     1     -11.469  12.519  68.735  1.00  0.00    -0.054 A 
HETATM   31  C   LIG     1     -12.102  12.858  69.943  1.00  0.00    -0.075 A 
HETATM   32  C   LIG     1     -12.480  11.872  70.855  1.00  0.00    -0.060 A 
HETATM   33  H   LIG     1     -12.312  13.898  70.182  1.00  0.00     0.084 H 
HETATM   34  C   LIG     1     -12.213  10.532  70.570  1.00  0.00     0.074 A 
HETATM   35  H   LIG     1     -12.984  12.158  71.776  1.00  0.00     0.085 H 
HETATM   36  C   LIG     1     -11.575  10.173  69.380  1.00  0.00    -0.060 A 
HETATM   37  C   LIG     1     -11.201  11.167  68.467  1.00  0.00    -0.075 A 
HETATM   38  H   LIG     1     -11.370   9.129  69.157  1.00  0.00     0.085 H 
HETATM   39  H   LIG     1     -10.697  10.875  67.548  1.00  0.00     0.084 H 
BRANCH  34  40
HETATM   40  S   LIG     1     -12.705   9.268  71.707  1.00  0.00     0.239 S 
HETATM   41  O   LIG     1     -13.850   9.723  72.437  1.00  0.00    -0.206 OA
HETATM   42  O   LIG     1     -11.523   8.722  72.357  1.00  0.00    -0.206 OA
BRANCH  40  43
HETATM   43  N   LIG     1     -13.239   8.046  70.686  1.00  0.00    -0.225 NA
HETATM   44  H   LIG     1     -14.219   7.847  70.883  1.00  0.00     0.136 HD
HETATM   45  H   LIG     1     -12.628   7.234  70.773  1.00  0.00     0.136 HD
ENDBRANCH  40  43
ENDBRANCH  34  40
ENDBRANCH  27  30
ENDBRANCH  23  27
ENDBRANCH  13  17
ENDBRANCH   1  11
BRANCH   2  46
HETATM   46  C   LIG     1      -5.277  10.094  63.376  1.00  0.00    -0.027 C 
HETATM   47  H   LIG     1      -4.991   9.228  63.985  1.00  0.00     0.042 H 
HETATM   48  H   LIG     1      -6.010  10.669  63.955  1.00  0.00     0.042 H 
BRANCH  46  49
HETATM   49  C   LIG     1      -4.051  10.994  63.189  1.00  0.00    -0.001 C 
HETATM   50  H   LIG     1      -3.170  10.406  62.905  1.00  0.00     0.064 H 
HETATM   51  H   LIG     1      -3.798  11.482  64.134  1.00  0.00     0.064 H 
BRANCH  49  52
HETATM   52  N   LIG     1      -4.289  12.006  62.171  1.00  0.00    -0.360 N 
HETATM   53  C   LIG     1      -3.254  12.734  61.641  1.00  0.00     0.221 C 
HETATM   54  O   LIG     1      -2.107  12.631  62.066  1.00  0.00    -0.273 OA
HETATM   55  H   LIG     1      -5.181  12.024  61.693  1.00  0.00     0.162 HD
BRANCH  53  56
HETATM   56  C   LIG     1      -3.664  13.744  60.562  1.00  0.00     0.024 C 
HETATM   57  C   LIG     1      -2.611  13.789  59.443  1.00  0.00    -0.051 C 
HETATM   58  C   LIG     1      -2.667  12.567  58.521  1.00  0.00    -0.040 C 
HETATM   59  H   LIG     1      -1.604  13.866  59.872  1.00  0.00     0.034 H 
HETATM   60  H   LIG     1      -2.757  14.699  58.849  1.00  0.00     0.034 H 
HETATM   61  C   LIG     1      -4.070  12.292  57.979  1.00  0.00     0.035 C 
HETATM   62  H   LIG     1      -2.314  11.681  59.062  1.00  0.00     0.036 H 
HETATM   63  H   LIG     1      -1.972  12.728  57.688  1.00  0.00     0.036 H 
HETATM   64  C   LIG     1      -5.125  12.266  59.087  1.00  0.00    -0.040 C 
HETATM   65  H   LIG     1      -4.073  11.324  57.466  1.00  0.00     0.082 H 
HETATM   66  C   LIG     1      -5.067  13.501  59.986  1.00  0.00    -0.051 C 
HETATM   67  H   LIG     1      -4.989  11.369  59.703  1.00  0.00     0.036 H 
HETATM   68  H   LIG     1      -6.126  12.206  58.642  1.00  0.00     0.036 H 
HETATM   69  H   LIG     1      -5.819  13.398  60.776  1.00  0.00     0.034 H 
HETATM   70  H   LIG     1      -5.369  14.383  59.405  1.00  0.00     0.034 H 
HETATM   71  H   LIG     1      -3.665  14.723  61.062  1.00  0.00     0.054 H 
BRANCH  61  72
HETATM   72  O   LIG     1      -4.410  13.271  56.996  1.00  0.00    -0.396 OA
HETATM   73  H   LIG     1      -4.354  14.147  57.412  1.00  0.00     0.210 HD
ENDBRANCH  61  72
ENDBRANCH  53  56
ENDBRANCH  49  52
ENDBRANCH  46  49
ENDBRANCH   2  46
TORSDOF 11
ENDMDL
MODEL 4
REMARK minimizedAffinity -4.99971104
REMARK minimizedRMSD -1
REMARK  11 active torsions:
REMARK  status: ('A' for Active; 'I' for Inactive)
REMARK    1  A    between atoms: N_1  and  S_2 
REMARK    2  A    between atoms: S_2  and  C_5 
REMARK    3  A    between atoms: C_8  and  C_9 
REMARK    4  A    between atoms: C_9  and  C_10 
REMARK    5  A    between atoms: C_14  and  N_15 
REMARK       I    between atoms: N_15  and  C_16 
REMARK       I    between atoms: C_16  and  N_18 
REMARK    6  A    between atoms: N_18  and  C_19 
REMARK    7  A    between atoms: C_20  and  C_21 
REMARK    8  A    between atoms: C_21  and  C_22 
REMARK    9  A    between atoms: C_22  and  N_23 
REMARK       I    between atoms: N_23  and  C_24 
REMARK   10  A    between atoms: C_24  and  C_26 
REMARK   11  A    between atoms: C_29  and  O_30 
ROOT
HETATM    1  C   LIG     1      -6.020  10.078  62.724  1.00  0.00     0.057 C 
HETATM    2  C   LIG     1      -6.775   9.178  62.057  1.00  0.00    -0.041 C 
HETATM    3  C   LIG     1      -6.214   8.500  60.818  1.00  0.00     0.034 C 
HETATM    4  C   LIG     1      -4.698   8.470  60.838  1.00  0.00     0.246 C 
HETATM    5  O   LIG     1      -4.092   7.462  60.486  1.00  0.00    -0.271 OA
HETATM    6  N   LIG     1      -4.089   9.646  61.191  1.00  0.00    -0.224 NA
HETATM    7  C   LIG     1      -4.714  10.386  62.054  1.00  0.00     0.032 C 
HETATM    8  H   LIG     1      -6.571   8.989  59.909  1.00  0.00     0.054 H 
HETATM    9  H   LIG     1      -6.500   7.446  60.767  1.00  0.00     0.054 H 
HETATM   10  H   LIG     1      -4.276  11.371  62.268  1.00  0.00     0.118 H 
ENDROOT
BRANCH   1  11
HETATM   11  N   LIG     1      -6.451  10.718  63.870  1.00  0.00    -0.307 N 
HETATM   12  C   LIG     1      -5.858  10.751  65.128  1.00  0.00     0.325 C 
HETATM   13  N   LIG     1      -6.652  11.489  66.002  1.00  0.00    -0.309 N 
HETATM   14  O   LIG     1      -4.810  10.182  65.402  1.00  0.00    -0.247 OA
HETATM   15  H   LIG     1      -7.373  12.058  65.587  1.00  0.00     0.170 HD
HETATM   16  H   LIG     1      -7.370  11.125  63.845  1.00  0.00     0.170 HD
BRANCH  13  17
HETATM   17  C   LIG     1      -6.466  11.731  67.380  1.00  0.00     0.036 A 
HETATM   18  C   LIG     1      -6.308  12.997  67.937  1.00  0.00    -0.057 A 
HETATM   19  C   LIG     1      -6.237  13.146  69.324  1.00  0.00    -0.080 A 
HETATM   20  H   LIG     1      -6.279  13.890  67.320  1.00  0.00     0.086 H 
HETATM   21  C   LIG     1      -6.287  12.031  70.162  1.00  0.00    -0.076 A 
HETATM   22  H   LIG     1      -6.165  14.144  69.752  1.00  0.00     0.083 H 
HETATM   23  C   LIG     1      -6.411  10.744  69.624  1.00  0.00    -0.052 A 
HETATM   24  H   LIG     1      -6.245  12.177  71.239  1.00  0.00     0.084 H 
HETATM   25  C   LIG     1      -6.496  10.609  68.230  1.00  0.00    -0.051 A 
HETATM   26  H   LIG     1      -6.591   9.610  67.811  1.00  0.00     0.087 H 
BRANCH  23  27
HETATM   27  C   LIG     1      -6.501   9.528  70.526  1.00  0.00    -0.017 C 
HETATM   28  H   LIG     1      -5.954   8.701  70.052  1.00  0.00     0.047 H 
HETATM   29  H   LIG     1      -5.969   9.717  71.467  1.00  0.00     0.047 H 
BRANCH  27  30
HETATM   30  C   LIG     1      -7.918   9.093  70.847  1.00  0.00    -0.054 A 
HETATM   31  C   LIG     1      -8.155   8.073  71.784  1.00  0.00    -0.075 A 
HETATM   32  C   LIG     1      -9.455   7.663  72.084  1.00  0.00    -0.060 A 
HETATM   33  H   LIG     1      -7.325   7.592  72.296  1.00  0.00     0.084 H 
HETATM   34  C   LIG     1     -10.533   8.263  71.433  1.00  0.00     0.074 A 
HETATM   35  H   LIG     1      -9.613   6.883  72.826  1.00  0.00     0.085 H 
HETATM   36  C   LIG     1     -10.321   9.272  70.490  1.00  0.00    -0.060 A 
HETATM   37  C   LIG     1      -9.014   9.681  70.196  1.00  0.00    -0.075 A 
HETATM   38  H   LIG     1     -11.161   9.741  69.985  1.00  0.00     0.085 H 
HETATM   39  H   LIG     1      -8.862  10.462  69.453  1.00  0.00     0.084 H 
BRANCH  34  40
HETATM   40  S   LIG     1     -12.188   7.769  71.817  1.00  0.00     0.239 S 
HETATM   41  O   LIG     1     -12.761   7.137  70.667  1.00  0.00    -0.206 OA
HETATM   42  O   LIG     1     -12.854   8.843  72.539  1.00  0.00    -0.206 OA
BRANCH  40  43
HETATM   43  N   LIG     1     -11.953   6.562  72.962  1.00  0.00    -0.225 NA
HETATM   44  H   LIG     1     -12.351   5.689  72.617  1.00  0.00     0.136 HD
HETATM   45  H   LIG     1     -12.332   6.861  73.861  1.00  0.00     0.136 HD
ENDBRANCH  40  43
ENDBRANCH  34  40
ENDBRANCH  27  30
ENDBRANCH  23  27
ENDBRANCH  13  17
ENDBRANCH   1  11
BRANCH   2  46
HETATM   46  C   LIG     1      -8.194   8.793  62.443  1.00  0.00    -0.027 C 
HETATM   47  H   LIG     1      -8.787   8.709  61.524  1.00  0.00     0.042 H 
HETATM   48  H   LIG     1      -8.651   9.582  63.051  1.00  0.00     0.042 H 
BRANCH  46  49
HETATM   49  C   LIG     1      -8.321   7.488  63.235  1.00  0.00    -0.001 C 
HETATM   50  H   LIG     1      -7.366   6.948  63.262  1.00  0.00     0.064 H 
HETATM   51  H   LIG     1      -9.033   6.820  62.741  1.00  0.00     0.064 H 
BRANCH  49  52
HETATM   52  N   LIG     1      -8.759   7.738  64.599  1.00  0.00    -0.360 N 
HETATM   53  C   LIG     1      -7.986   7.365  65.670  1.00  0.00     0.221 C 
HETATM   54  O   LIG     1      -6.948   6.727  65.527  1.00  0.00    -0.273 OA
HETATM   55  H   LIG     1      -9.524   8.380  64.762  1.00  0.00     0.162 HD
BRANCH  53  56
HETATM   56  C   LIG     1      -8.575   7.719  67.041  1.00  0.00     0.024 C 
HETATM   57  C   LIG     1     -10.106   7.829  66.954  1.00  0.00    -0.051 C 
HETATM   58  C   LIG     1     -10.797   6.465  66.853  1.00  0.00    -0.040 C 
HETATM   59  H   LIG     1     -10.395   8.440  66.089  1.00  0.00     0.034 H 
HETATM   60  H   LIG     1     -10.479   8.360  67.837  1.00  0.00     0.034 H 
HETATM   61  C   LIG     1     -10.351   5.489  67.941  1.00  0.00     0.035 C 
HETATM   62  H   LIG     1     -10.594   6.022  65.870  1.00  0.00     0.036 H 
HETATM   63  H   LIG     1     -11.881   6.620  66.913  1.00  0.00     0.036 H 
HETATM   64  C   LIG     1      -8.828   5.391  68.045  1.00  0.00    -0.040 C 
HETATM   65  H   LIG     1     -10.754   4.495  67.717  1.00  0.00     0.082 H 
HETATM   66  C   LIG     1      -8.156   6.759  68.164  1.00  0.00    -0.051 C 
HETATM   67  H   LIG     1      -8.431   4.873  67.163  1.00  0.00     0.036 H 
HETATM   68  H   LIG     1      -8.556   4.792  68.923  1.00  0.00     0.036 H 
HETATM   69  H   LIG     1      -7.071   6.617  68.194  1.00  0.00     0.034 H 
HETATM   70  H   LIG     1      -8.422   7.207  69.131  1.00  0.00     0.034 H 
HETATM   71  H   LIG     1      -8.180   8.717  67.280  1.00  0.00     0.054 H 
BRANCH  61  72
HETATM   72  O   LIG     1     -10.909   5.877  69.198  1.00  0.00    -0.396 OA
HETATM   73  H   LIG     1     -10.615   6.782  69.391  1.00  0.00     0.210 HD
ENDBRANCH  61  72
ENDBRANCH  53  56
ENDBRANCH  49  52
ENDBRANCH  46  49
ENDBRANCH   2  46
TORSDOF 11
ENDMDL
