MODEL 1
REMARK minimizedAffinity -8.53688717
REMARK minimizedRMSD -1
REMARK  11 active torsions:
REMARK  status: ('A' for Active; 'I' for Inactive)
REMARK    1  A    between atoms: N_1  and  S_2 
REMARK    2  A    between atoms: S_2  and  C_5 
REMARK    3  A    between atoms: C_8  and  C_9 
REMARK    4  A    between atoms: C_9  and  C_10 
REMARK    5  A    between atoms: C_14  and  N_15 
REMARK       I    between atoms: N_15  and  C_16 
REMARK       I    between atoms: C_16  and  N_18 
REMARK    6  A    between atoms: N_18  and  C_19 
REMARK    7  A    between atoms: C_21  and  C_22 
REMARK    8  A    between atoms: C_22  and  C_23 
REMARK    9  A    between atoms: C_23  and  N_24 
REMARK       I    between atoms: N_24  and  C_25 
REMARK   10  A    between atoms: C_25  and  C_27 
REMARK   11  A    between atoms: C_30  and  O_31 
ROOT
HETATM    1  C   LIG     1     -11.062  13.698  67.226  1.00  0.00     0.051 C 
HETATM    2  C   LIG     1     -11.856  13.240  66.245  1.00  0.00    -0.063 C 
HETATM    3  C   LIG     1     -11.795  13.782  64.829  1.00  0.00     0.045 C 
HETATM    4  C   LIG     1     -11.196  15.194  64.835  1.00  0.00     0.250 C 
HETATM    5  O   LIG     1     -11.595  16.040  64.036  1.00  0.00    -0.271 OA
HETATM    6  N   LIG     1     -10.141  15.431  65.679  1.00  0.00    -0.224 NA
HETATM    7  C   LIG     1     -10.097  14.751  66.778  1.00  0.00     0.031 C 
HETATM    8  H   LIG     1     -12.583  12.455  66.429  1.00  0.00     0.081 H 
HETATM    9  H   LIG     1     -12.827  13.883  64.468  1.00  0.00     0.061 H 
HETATM   10  H   LIG     1      -9.232  14.947  67.421  1.00  0.00     0.118 H 
ENDROOT
BRANCH   1  11
HETATM   11  N   LIG     1     -11.106  13.185  68.507  1.00  0.00    -0.308 N 
HETATM   12  C   LIG     1     -11.556  11.921  68.858  1.00  0.00     0.325 C 
HETATM   13  N   LIG     1     -11.469  11.669  70.220  1.00  0.00    -0.309 N 
HETATM   14  O   LIG     1     -11.968  11.116  68.033  1.00  0.00    -0.247 OA
HETATM   15  H   LIG     1     -10.801  12.215  70.745  1.00  0.00     0.170 HD
HETATM   16  H   LIG     1     -10.787  13.786  69.253  1.00  0.00     0.170 HD
BRANCH  13  17
HETATM   17  C   LIG     1     -11.917  10.456  70.814  1.00  0.00     0.036 A 
HETATM   18  C   LIG     1     -13.205  10.322  71.338  1.00  0.00    -0.057 A 
HETATM   19  C   LIG     1     -13.679   9.088  71.762  1.00  0.00    -0.080 A 
HETATM   20  H   LIG     1     -13.888  11.164  71.408  1.00  0.00     0.086 H 
HETATM   21  C   LIG     1     -12.852   7.972  71.713  1.00  0.00    -0.076 A 
HETATM   22  H   LIG     1     -14.707   8.996  72.105  1.00  0.00     0.083 H 
HETATM   23  C   LIG     1     -11.520   8.082  71.290  1.00  0.00    -0.052 A 
HETATM   24  H   LIG     1     -13.278   7.017  72.008  1.00  0.00     0.084 H 
HETATM   25  C   LIG     1     -11.061   9.341  70.840  1.00  0.00    -0.051 A 
HETATM   26  H   LIG     1     -10.045   9.429  70.464  1.00  0.00     0.087 H 
BRANCH  23  27
HETATM   27  C   LIG     1     -10.620   6.863  71.193  1.00  0.00    -0.017 C 
HETATM   28  H   LIG     1      -9.607   7.152  71.504  1.00  0.00     0.047 H 
HETATM   29  H   LIG     1     -10.954   6.103  71.911  1.00  0.00     0.047 H 
BRANCH  27  30
HETATM   30  C   LIG     1     -10.558   6.215  69.817  1.00  0.00    -0.054 A 
HETATM   31  C   LIG     1     -11.201   6.810  68.720  1.00  0.00    -0.075 A 
HETATM   32  C   LIG     1     -11.077   6.276  67.433  1.00  0.00    -0.060 A 
HETATM   33  H   LIG     1     -11.799   7.712  68.871  1.00  0.00     0.084 H 
HETATM   34  C   LIG     1     -10.290   5.139  67.238  1.00  0.00     0.074 A 
HETATM   35  H   LIG     1     -11.603   6.767  66.615  1.00  0.00     0.085 H 
HETATM   36  C   LIG     1      -9.660   4.515  68.323  1.00  0.00    -0.060 A 
HETATM   37  C   LIG     1      -9.796   5.055  69.607  1.00  0.00    -0.075 A 
HETATM   38  H   LIG     1      -9.065   3.616  68.177  1.00  0.00     0.085 H 
HETATM   39  H   LIG     1      -9.278   4.579  70.439  1.00  0.00     0.084 H 
BRANCH  34  40
HETATM   40  S   LIG     1     -10.067   4.435  65.614  1.00  0.00     0.239 S 
HETATM   41  O   LIG     1      -9.680   3.037  65.769  1.00  0.00    -0.206 OA
HETATM   42  O   LIG     1      -9.276   5.361  64.859  1.00  0.00    -0.206 OA
BRANCH  40  43
HETATM   43  N   LIG     1     -11.649   4.497  64.997  1.00  0.00    -0.225 NA
HETATM   44  H   LIG     1     -12.088   3.594  64.810  1.00  0.00     0.136 HD
HETATM   45  H   LIG     1     -12.282   5.150  65.473  1.00  0.00     0.136 HD
ENDBRANCH  40  43
ENDBRANCH  34  40
ENDBRANCH  27  30
ENDBRANCH  23  27
ENDBRANCH  13  17
ENDBRANCH   1  11
BRANCH   3  46
HETATM   46  C   LIG     1     -11.000  12.836  63.910  1.00  0.00    -0.036 C 
HETATM   47  H   LIG     1      -9.965  13.198  63.846  1.00  0.00     0.037 H 
HETATM   48  H   LIG     1     -11.403  12.882  62.889  1.00  0.00     0.037 H 
BRANCH  46  49
HETATM   49  C   LIG     1     -10.995  11.372  64.372  1.00  0.00    -0.004 C 
HETATM   50  H   LIG     1     -11.211  10.705  63.532  1.00  0.00     0.064 H 
HETATM   51  H   LIG     1     -11.750  11.208  65.149  1.00  0.00     0.064 H 
BRANCH  49  52
HETATM   52  N   LIG     1      -9.694  10.954  64.889  1.00  0.00    -0.361 N 
HETATM   53  C   LIG     1      -9.518   9.879  65.727  1.00  0.00     0.221 C 
HETATM   54  O   LIG     1     -10.460   9.199  66.132  1.00  0.00    -0.273 OA
HETATM   55  H   LIG     1      -8.878  11.418  64.498  1.00  0.00     0.162 HD
BRANCH  53  56
HETATM   56  C   LIG     1      -8.061   9.656  66.201  1.00  0.00     0.024 C 
HETATM   57  C   LIG     1      -7.304  10.969  66.467  1.00  0.00    -0.051 C 
HETATM   58  C   LIG     1      -7.721  11.674  67.764  1.00  0.00    -0.040 C 
HETATM   59  H   LIG     1      -7.426  11.662  65.626  1.00  0.00     0.034 H 
HETATM   60  H   LIG     1      -6.231  10.745  66.525  1.00  0.00     0.034 H 
HETATM   61  C   LIG     1      -7.812  10.763  68.987  1.00  0.00     0.035 C 
HETATM   62  H   LIG     1      -8.694  12.153  67.603  1.00  0.00     0.036 H 
HETATM   63  H   LIG     1      -6.999  12.478  67.963  1.00  0.00     0.036 H 
HETATM   64  C   LIG     1      -8.474   9.408  68.690  1.00  0.00    -0.040 C 
HETATM   65  H   LIG     1      -8.395  11.269  69.763  1.00  0.00     0.082 H 
HETATM   66  C   LIG     1      -7.921   8.749  67.429  1.00  0.00    -0.051 C 
HETATM   67  H   LIG     1      -9.555   9.551  68.575  1.00  0.00     0.036 H 
HETATM   68  H   LIG     1      -8.319   8.731  69.535  1.00  0.00     0.036 H 
HETATM   69  H   LIG     1      -8.411   7.784  67.278  1.00  0.00     0.034 H 
HETATM   70  H   LIG     1      -6.857   8.522  67.578  1.00  0.00     0.034 H 
HETATM   71  H   LIG     1      -7.564   9.163  65.354  1.00  0.00     0.054 H 
BRANCH  61  72
HETATM   72  O   LIG     1      -6.514  10.565  69.536  1.00  0.00    -0.396 OA
HETATM   73  H   LIG     1      -5.978  10.054  68.914  1.00  0.00     0.210 HD
ENDBRANCH  61  72
ENDBRANCH  53  56
ENDBRANCH  49  52
ENDBRANCH  46  49
ENDBRANCH   3  46
TORSDOF 11
ENDMDL
MODEL 2
REMARK minimizedAffinity -7.56287432
REMARK minimizedRMSD -1
REMARK  11 active torsions:
REMARK  status: ('A' for Active; 'I' for Inactive)
REMARK    1  A    between atoms: N_1  and  S_2 
REMARK    2  A    between atoms: S_2  and  C_5 
REMARK    3  A    between atoms: C_8  and  C_9 
REMARK    4  A    between atoms: C_9  and  C_10 
REMARK    5  A    between atoms: C_14  and  N_15 
REMARK       I    between atoms: N_15  and  C_16 
REMARK       I    between atoms: C_16  and  N_18 
REMARK    6  A    between atoms: N_18  and  C_19 
REMARK    7  A    between atoms: C_21  and  C_22 
REMARK    8  A    between atoms: C_22  and  C_23 
REMARK    9  A    between atoms: C_23  and  N_24 
REMARK       I    between atoms: N_24  and  C_25 
REMARK   10  A    between atoms: C_25  and  C_27 
REMARK   11  A    between atoms: C_30  and  O_31 
ROOT
HETATM    1  C   LIG     1     -11.880  14.118  69.948  1.00  0.00     0.051 C 
HETATM    2  C   LIG     1     -11.813  13.991  68.614  1.00  0.00    -0.063 C 
HETATM    3  C   LIG     1     -11.095  14.999  67.736  1.00  0.00     0.045 C 
HETATM    4  C   LIG     1     -11.003  16.349  68.457  1.00  0.00     0.250 C 
HETATM    5  O   LIG     1     -11.076  17.399  67.819  1.00  0.00    -0.271 OA
HETATM    6  N   LIG     1     -10.731  16.332  69.801  1.00  0.00    -0.224 NA
HETATM    7  C   LIG     1     -11.150  15.312  70.477  1.00  0.00     0.031 C 
HETATM    8  H   LIG     1     -12.278  13.153  68.103  1.00  0.00     0.081 H 
HETATM    9  H   LIG     1     -11.715  15.163  66.844  1.00  0.00     0.061 H 
HETATM   10  H   LIG     1     -10.898  15.317  71.544  1.00  0.00     0.118 H 
ENDROOT
BRANCH   1  11
HETATM   11  N   LIG     1     -12.515  13.185  70.745  1.00  0.00    -0.308 N 
HETATM   12  C   LIG     1     -12.336  11.811  70.681  1.00  0.00     0.325 C 
HETATM   13  N   LIG     1     -13.093  11.119  71.616  1.00  0.00    -0.309 N 
HETATM   14  O   LIG     1     -11.572  11.282  69.885  1.00  0.00    -0.247 OA
HETATM   15  H   LIG     1     -13.388  11.630  72.436  1.00  0.00     0.170 HD
HETATM   16  H   LIG     1     -13.169  13.536  71.428  1.00  0.00     0.170 HD
BRANCH  13  17
HETATM   17  C   LIG     1     -13.106   9.699  71.704  1.00  0.00     0.036 A 
HETATM   18  C   LIG     1     -14.295   8.979  71.855  1.00  0.00    -0.057 A 
HETATM   19  C   LIG     1     -14.307   7.594  71.774  1.00  0.00    -0.080 A 
HETATM   20  H   LIG     1     -15.249   9.473  72.012  1.00  0.00     0.086 H 
HETATM   21  C   LIG     1     -13.117   6.899  71.588  1.00  0.00    -0.076 A 
HETATM   22  H   LIG     1     -15.252   7.060  71.827  1.00  0.00     0.083 H 
HETATM   23  C   LIG     1     -11.890   7.575  71.534  1.00  0.00    -0.052 A 
HETATM   24  H   LIG     1     -13.177   5.820  71.480  1.00  0.00     0.084 H 
HETATM   25  C   LIG     1     -11.900   8.987  71.595  1.00  0.00    -0.051 A 
HETATM   26  H   LIG     1     -10.959   9.526  71.506  1.00  0.00     0.087 H 
BRANCH  23  27
HETATM   27  C   LIG     1     -10.589   6.831  71.290  1.00  0.00    -0.017 C 
HETATM   28  H   LIG     1      -9.754   7.497  71.542  1.00  0.00     0.047 H 
HETATM   29  H   LIG     1     -10.520   5.979  71.980  1.00  0.00     0.047 H 
BRANCH  27  30
HETATM   30  C   LIG     1     -10.404   6.305  69.874  1.00  0.00    -0.054 A 
HETATM   31  C   LIG     1      -9.431   5.330  69.598  1.00  0.00    -0.075 A 
HETATM   32  C   LIG     1      -9.311   4.770  68.321  1.00  0.00    -0.060 A 
HETATM   33  H   LIG     1      -8.765   4.994  70.395  1.00  0.00     0.084 H 
HETATM   34  C   LIG     1     -10.181   5.182  67.310  1.00  0.00     0.074 A 
HETATM   35  H   LIG     1      -8.534   4.025  68.153  1.00  0.00     0.085 H 
HETATM   36  C   LIG     1     -11.143   6.171  67.557  1.00  0.00    -0.060 A 
HETATM   37  C   LIG     1     -11.250   6.728  68.837  1.00  0.00    -0.075 A 
HETATM   38  H   LIG     1     -11.807   6.510  66.765  1.00  0.00     0.085 H 
HETATM   39  H   LIG     1     -12.020   7.476  69.026  1.00  0.00     0.084 H 
BRANCH  34  40
HETATM   40  S   LIG     1     -10.098   4.478  65.673  1.00  0.00     0.239 S 
HETATM   41  O   LIG     1      -9.778   3.060  65.798  1.00  0.00    -0.206 OA
HETATM   42  O   LIG     1      -9.307   5.365  64.873  1.00  0.00    -0.206 OA
BRANCH  40  43
HETATM   43  N   LIG     1     -11.709   4.628  65.156  1.00  0.00    -0.225 NA
HETATM   44  H   LIG     1     -12.207   3.751  64.994  1.00  0.00     0.136 HD
HETATM   45  H   LIG     1     -12.276   5.311  65.673  1.00  0.00     0.136 HD
ENDBRANCH  40  43
ENDBRANCH  34  40
ENDBRANCH  27  30
ENDBRANCH  23  27
ENDBRANCH  13  17
ENDBRANCH   1  11
BRANCH   3  46
HETATM   46  C   LIG     1      -9.703  14.482  67.327  1.00  0.00    -0.036 C 
HETATM   47  H   LIG     1      -9.051  15.345  67.138  1.00  0.00     0.037 H 
HETATM   48  H   LIG     1      -9.772  13.937  66.375  1.00  0.00     0.037 H 
BRANCH  46  49
HETATM   49  C   LIG     1      -9.043  13.569  68.370  1.00  0.00    -0.004 C 
HETATM   50  H   LIG     1      -9.376  13.837  69.377  1.00  0.00     0.064 H 
HETATM   51  H   LIG     1      -7.953  13.657  68.329  1.00  0.00     0.064 H 
BRANCH  49  52
HETATM   52  N   LIG     1      -9.406  12.164  68.191  1.00  0.00    -0.361 N 
HETATM   53  C   LIG     1      -8.593  11.117  68.552  1.00  0.00     0.221 C 
HETATM   54  O   LIG     1      -7.473  11.289  69.032  1.00  0.00    -0.273 OA
HETATM   55  H   LIG     1     -10.361  11.974  67.899  1.00  0.00     0.162 HD
BRANCH  53  56
HETATM   56  C   LIG     1      -9.152   9.714  68.214  1.00  0.00     0.024 C 
HETATM   57  C   LIG     1     -10.350   9.756  67.250  1.00  0.00    -0.051 C 
HETATM   58  C   LIG     1      -9.968  10.062  65.797  1.00  0.00    -0.040 C 
HETATM   59  H   LIG     1     -11.092  10.491  67.589  1.00  0.00     0.034 H 
HETATM   60  H   LIG     1     -10.853   8.781  67.278  1.00  0.00     0.034 H 
HETATM   61  C   LIG     1      -8.785   9.256  65.264  1.00  0.00     0.035 C 
HETATM   62  H   LIG     1      -9.738  11.130  65.714  1.00  0.00     0.036 H 
HETATM   63  H   LIG     1     -10.849   9.875  65.165  1.00  0.00     0.036 H 
HETATM   64  C   LIG     1      -7.632   9.126  66.272  1.00  0.00    -0.040 C 
HETATM   65  H   LIG     1      -8.402   9.744  64.362  1.00  0.00     0.082 H 
HETATM   66  C   LIG     1      -8.114   8.728  67.665  1.00  0.00    -0.051 C 
HETATM   67  H   LIG     1      -7.098  10.081  66.336  1.00  0.00     0.036 H 
HETATM   68  H   LIG     1      -6.920   8.373  65.919  1.00  0.00     0.036 H 
HETATM   69  H   LIG     1      -7.254   8.631  68.333  1.00  0.00     0.034 H 
HETATM   70  H   LIG     1      -8.568   7.730  67.618  1.00  0.00     0.034 H 
HETATM   71  H   LIG     1      -9.521   9.322  69.172  1.00  0.00     0.054 H 
BRANCH  61  72
HETATM   72  O   LIG     1      -9.227   7.966  64.855  1.00  0.00    -0.396 OA
HETATM   73  H   LIG     1      -9.511   7.464  65.632  1.00  0.00     0.210 HD
ENDBRANCH  61  72
ENDBRANCH  53  56
ENDBRANCH  49  52
ENDBRANCH  46  49
ENDBRANCH   3  46
TORSDOF 11
ENDMDL
MODEL 3
REMARK minimizedAffinity -6.99165201
REMARK minimizedRMSD -1
REMARK  11 active torsions:
REMARK  status: ('A' for Active; 'I' for Inactive)
REMARK    1  A    between atoms: N_1  and  S_2 
REMARK    2  A    between atoms: S_2  and  C_5 
REMARK    3  A    between atoms: C_8  and  C_9 
REMARK    4  A    between atoms: C_9  and  C_10 
REMARK    5  A    between atoms: C_14  and  N_15 
REMARK       I    between atoms: N_15  and  C_16 
REMARK       I    between atoms: C_16  and  N_18 
REMARK    6  A    between atoms: N_18  and  C_19 
REMARK    7  A    between atoms: C_21  and  C_22 
REMARK    8  A    between atoms: C_22  and  C_23 
REMARK    9  A    between atoms: C_23  and  N_24 
REMARK       I    between atoms: N_24  and  C_25 
REMARK   10  A    between atoms: C_25  and  C_27 
REMARK   11  A    between atoms: C_30  and  O_31 
ROOT
HETATM    1  C   LIG     1      -8.845   8.884  61.267  1.00  0.00     0.051 C 
HETATM    2  C   LIG     1      -7.771   9.484  60.731  1.00  0.00    -0.063 C 
HETATM    3  C   LIG     1      -6.591   8.701  60.184  1.00  0.00     0.045 C 
HETATM    4  C   LIG     1      -6.543   7.309  60.825  1.00  0.00     0.250 C 
HETATM    5  O   LIG     1      -5.462   6.771  61.062  1.00  0.00    -0.271 OA
HETATM    6  N   LIG     1      -7.736   6.658  61.015  1.00  0.00    -0.224 NA
HETATM    7  C   LIG     1      -8.781   7.389  61.231  1.00  0.00     0.031 C 
HETATM    8  H   LIG     1      -7.701  10.565  60.670  1.00  0.00     0.081 H 
HETATM    9  H   LIG     1      -5.675   9.220  60.498  1.00  0.00     0.061 H 
HETATM   10  H   LIG     1      -9.722   6.842  61.358  1.00  0.00     0.118 H 
ENDROOT
BRANCH   1  11
HETATM   11  N   LIG     1      -9.926   9.600  61.742  1.00  0.00    -0.308 N 
HETATM   12  C   LIG     1      -9.859  10.722  62.554  1.00  0.00     0.325 C 
HETATM   13  N   LIG     1     -11.106  11.246  62.864  1.00  0.00    -0.309 N 
HETATM   14  O   LIG     1      -8.798  11.197  62.935  1.00  0.00    -0.247 OA
HETATM   15  H   LIG     1     -11.864  11.030  62.232  1.00  0.00     0.170 HD
HETATM   16  H   LIG     1     -10.844   9.273  61.480  1.00  0.00     0.170 HD
BRANCH  13  17
HETATM   17  C   LIG     1     -11.284  12.369  63.720  1.00  0.00     0.036 A 
HETATM   18  C   LIG     1     -12.204  13.381  63.430  1.00  0.00    -0.057 A 
HETATM   19  C   LIG     1     -12.482  14.379  64.353  1.00  0.00    -0.080 A 
HETATM   20  H   LIG     1     -12.751  13.408  62.493  1.00  0.00     0.086 H 
HETATM   21  C   LIG     1     -11.807  14.410  65.568  1.00  0.00    -0.076 A 
HETATM   22  H   LIG     1     -13.250  15.117  64.133  1.00  0.00     0.083 H 
HETATM   23  C   LIG     1     -10.802  13.475  65.856  1.00  0.00    -0.052 A 
HETATM   24  H   LIG     1     -12.089  15.179  66.281  1.00  0.00     0.084 H 
HETATM   25  C   LIG     1     -10.549  12.452  64.915  1.00  0.00    -0.051 A 
HETATM   26  H   LIG     1      -9.807  11.692  65.148  1.00  0.00     0.087 H 
BRANCH  23  27
HETATM   27  C   LIG     1     -10.087  13.474  67.195  1.00  0.00    -0.017 C 
HETATM   28  H   LIG     1      -9.643  12.482  67.353  1.00  0.00     0.047 H 
HETATM   29  H   LIG     1      -9.249  14.183  67.163  1.00  0.00     0.047 H 
BRANCH  27  30
HETATM   30  C   LIG     1     -10.958  13.831  68.392  1.00  0.00    -0.054 A 
HETATM   31  C   LIG     1     -11.241  15.173  68.692  1.00  0.00    -0.075 A 
HETATM   32  C   LIG     1     -12.113  15.513  69.732  1.00  0.00    -0.060 A 
HETATM   33  H   LIG     1     -10.782  15.965  68.096  1.00  0.00     0.084 H 
HETATM   34  C   LIG     1     -12.719  14.498  70.474  1.00  0.00     0.074 A 
HETATM   35  H   LIG     1     -12.294  16.568  69.933  1.00  0.00     0.085 H 
HETATM   36  C   LIG     1     -12.431  13.152  70.208  1.00  0.00    -0.060 A 
HETATM   37  C   LIG     1     -11.553  12.825  69.169  1.00  0.00    -0.075 A 
HETATM   38  H   LIG     1     -12.885  12.360  70.799  1.00  0.00     0.085 H 
HETATM   39  H   LIG     1     -11.358  11.775  68.951  1.00  0.00     0.084 H 
BRANCH  34  40
HETATM   40  S   LIG     1     -13.867  14.871  71.788  1.00  0.00     0.239 S 
HETATM   41  O   LIG     1     -13.309  15.952  72.592  1.00  0.00    -0.206 OA
HETATM   42  O   LIG     1     -14.263  13.621  72.368  1.00  0.00    -0.206 OA
BRANCH  40  43
HETATM   43  N   LIG     1     -15.197  15.470  70.917  1.00  0.00    -0.225 NA
HETATM   44  H   LIG     1     -15.427  16.453  71.078  1.00  0.00     0.136 HD
HETATM   45  H   LIG     1     -15.220  15.220  69.921  1.00  0.00     0.136 HD
ENDBRANCH  40  43
ENDBRANCH  34  40
ENDBRANCH  27  30
ENDBRANCH  23  27
ENDBRANCH  13  17
ENDBRANCH   1  11
BRANCH   3  46
HETATM   46  C   LIG     1      -6.652   8.613  58.648  1.00  0.00    -0.036 C 
HETATM   47  H   LIG     1      -5.649   8.807  58.246  1.00  0.00     0.037 H 
HETATM   48  H   LIG     1      -7.297   9.411  58.254  1.00  0.00     0.037 H 
BRANCH  46  49
HETATM   49  C   LIG     1      -7.158   7.264  58.118  1.00  0.00    -0.004 C 
HETATM   50  H   LIG     1      -7.156   6.515  58.915  1.00  0.00     0.064 H 
HETATM   51  H   LIG     1      -6.522   6.905  57.302  1.00  0.00     0.064 H 
BRANCH  49  52
HETATM   52  N   LIG     1      -8.537   7.334  57.640  1.00  0.00    -0.361 N 
HETATM   53  C   LIG     1      -9.457   6.330  57.822  1.00  0.00     0.221 C 
HETATM   54  O   LIG     1      -9.174   5.272  58.384  1.00  0.00    -0.273 OA
HETATM   55  H   LIG     1      -8.845   8.228  57.267  1.00  0.00     0.162 HD
BRANCH  53  56
HETATM   56  C   LIG     1     -10.841   6.591  57.179  1.00  0.00     0.024 C 
HETATM   57  C   LIG     1     -12.010   6.049  58.019  1.00  0.00    -0.051 C 
HETATM   58  C   LIG     1     -12.322   6.887  59.264  1.00  0.00    -0.040 C 
HETATM   59  H   LIG     1     -11.819   5.012  58.321  1.00  0.00     0.034 H 
HETATM   60  H   LIG     1     -12.907   6.021  57.387  1.00  0.00     0.034 H 
HETATM   61  C   LIG     1     -12.393   8.393  59.021  1.00  0.00     0.035 C 
HETATM   62  H   LIG     1     -11.556   6.684  60.022  1.00  0.00     0.036 H 
HETATM   63  H   LIG     1     -13.280   6.540  59.679  1.00  0.00     0.036 H 
HETATM   64  C   LIG     1     -11.284   8.914  58.094  1.00  0.00    -0.040 C 
HETATM   65  H   LIG     1     -12.312   8.911  59.982  1.00  0.00     0.082 H 
HETATM   66  C   LIG     1     -11.119   8.060  56.839  1.00  0.00    -0.051 C 
HETATM   67  H   LIG     1     -10.334   8.933  58.641  1.00  0.00     0.036 H 
HETATM   68  H   LIG     1     -11.511   9.941  57.791  1.00  0.00     0.036 H 
HETATM   69  H   LIG     1     -10.334   8.486  56.210  1.00  0.00     0.034 H 
HETATM   70  H   LIG     1     -12.040   8.114  56.243  1.00  0.00     0.034 H 
HETATM   71  H   LIG     1     -10.825   6.021  56.240  1.00  0.00     0.054 H 
BRANCH  61  72
HETATM   72  O   LIG     1     -13.671   8.735  58.496  1.00  0.00    -0.396 OA
HETATM   73  H   LIG     1     -13.765   8.358  57.610  1.00  0.00     0.210 HD
ENDBRANCH  61  72
ENDBRANCH  53  56
ENDBRANCH  49  52
ENDBRANCH  46  49
ENDBRANCH   3  46
TORSDOF 11
ENDMDL
MODEL 4
REMARK minimizedAffinity -6.65203905
REMARK minimizedRMSD -1
REMARK  11 active torsions:
REMARK  status: ('A' for Active; 'I' for Inactive)
REMARK    1  A    between atoms: N_1  and  S_2 
REMARK    2  A    between atoms: S_2  and  C_5 
REMARK    3  A    between atoms: C_8  and  C_9 
REMARK    4  A    between atoms: C_9  and  C_10 
REMARK    5  A    between atoms: C_14  and  N_15 
REMARK       I    between atoms: N_15  and  C_16 
REMARK       I    between atoms: C_16  and  N_18 
REMARK    6  A    between atoms: N_18  and  C_19 
REMARK    7  A    between atoms: C_21  and  C_22 
REMARK    8  A    between atoms: C_22  and  C_23 
REMARK    9  A    between atoms: C_23  and  N_24 
REMARK       I    between atoms: N_24  and  C_25 
REMARK   10  A    between atoms: C_25  and  C_27 
REMARK   11  A    between atoms: C_30  and  O_31 
ROOT
HETATM    1  C   LIG     1     -11.233  13.750  68.615  1.00  0.00     0.051 C 
HETATM    2  C   LIG     1     -10.163  14.560  68.577  1.00  0.00    -0.063 C 
HETATM    3  C   LIG     1      -9.815  15.392  67.357  1.00  0.00     0.045 C 
HETATM    4  C   LIG     1     -10.443  14.771  66.103  1.00  0.00     0.250 C 
HETATM    5  O   LIG     1      -9.856  14.825  65.024  1.00  0.00    -0.271 OA
HETATM    6  N   LIG     1     -11.712  14.262  66.216  1.00  0.00    -0.224 NA
HETATM    7  C   LIG     1     -12.058  13.784  67.367  1.00  0.00     0.031 C 
HETATM    8  H   LIG     1      -9.494  14.650  69.428  1.00  0.00     0.081 H 
HETATM    9  H   LIG     1      -8.727  15.340  67.219  1.00  0.00     0.061 H 
HETATM   10  H   LIG     1     -13.084  13.405  67.431  1.00  0.00     0.118 H 
ENDROOT
BRANCH   1  11
HETATM   11  N   LIG     1     -11.557  13.012  69.736  1.00  0.00    -0.308 N 
HETATM   12  C   LIG     1     -11.840  11.654  69.756  1.00  0.00     0.325 C 
HETATM   13  N   LIG     1     -12.116  11.174  71.029  1.00  0.00    -0.309 N 
HETATM   14  O   LIG     1     -11.825  10.962  68.747  1.00  0.00    -0.247 OA
HETATM   15  H   LIG     1     -11.753  11.704  71.808  1.00  0.00     0.170 HD
HETATM   16  H   LIG     1     -11.598  13.506  70.615  1.00  0.00     0.170 HD
BRANCH  13  17
HETATM   17  C   LIG     1     -12.479   9.821  71.285  1.00  0.00     0.036 A 
HETATM   18  C   LIG     1     -13.799   9.450  71.558  1.00  0.00    -0.057 A 
HETATM   19  C   LIG     1     -14.161   8.113  71.642  1.00  0.00    -0.080 A 
HETATM   20  H   LIG     1     -14.587  10.185  71.687  1.00  0.00     0.086 H 
HETATM   21  C   LIG     1     -13.197   7.122  71.501  1.00  0.00    -0.076 A 
HETATM   22  H   LIG     1     -15.205   7.847  71.789  1.00  0.00     0.083 H 
HETATM   23  C   LIG     1     -11.845   7.452  71.328  1.00  0.00    -0.052 A 
HETATM   24  H   LIG     1     -13.531   6.088  71.524  1.00  0.00     0.084 H 
HETATM   25  C   LIG     1     -11.498   8.818  71.222  1.00  0.00    -0.051 A 
HETATM   26  H   LIG     1     -10.459   9.085  71.039  1.00  0.00     0.087 H 
BRANCH  23  27
HETATM   27  C   LIG     1     -10.790   6.379  71.131  1.00  0.00    -0.017 C 
HETATM   28  H   LIG     1      -9.823   6.774  71.469  1.00  0.00     0.047 H 
HETATM   29  H   LIG     1     -11.014   5.522  71.781  1.00  0.00     0.047 H 
BRANCH  27  30
HETATM   30  C   LIG     1     -10.652   5.864  69.706  1.00  0.00    -0.054 A 
HETATM   31  C   LIG     1     -11.187   6.591  68.630  1.00  0.00    -0.075 A 
HETATM   32  C   LIG     1     -10.988   6.178  67.308  1.00  0.00    -0.060 A 
HETATM   33  H   LIG     1     -11.758   7.501  68.828  1.00  0.00     0.084 H 
HETATM   34  C   LIG     1     -10.236   5.030  67.057  1.00  0.00     0.074 A 
HETATM   35  H   LIG     1     -11.432   6.770  66.508  1.00  0.00     0.085 H 
HETATM   36  C   LIG     1      -9.713   4.275  68.116  1.00  0.00    -0.060 A 
HETATM   37  C   LIG     1      -9.923   4.695  69.435  1.00  0.00    -0.075 A 
HETATM   38  H   LIG     1      -9.145   3.367  67.924  1.00  0.00     0.085 H 
HETATM   39  H   LIG     1      -9.488   4.117  70.250  1.00  0.00     0.084 H 
BRANCH  34  40
HETATM   40  S   LIG     1      -9.920   4.475  65.391  1.00  0.00     0.239 S 
HETATM   41  O   LIG     1     -11.201   4.213  64.744  1.00  0.00    -0.206 OA
HETATM   42  O   LIG     1      -8.891   3.481  65.466  1.00  0.00    -0.206 OA
BRANCH  40  43
HETATM   43  N   LIG     1      -9.232   5.865  64.695  1.00  0.00    -0.225 NA
HETATM   44  H   LIG     1      -9.772   6.298  63.944  1.00  0.00     0.136 HD
HETATM   45  H   LIG     1      -8.863   6.554  65.361  1.00  0.00     0.136 HD
ENDBRANCH  40  43
ENDBRANCH  34  40
ENDBRANCH  27  30
ENDBRANCH  23  27
ENDBRANCH  13  17
ENDBRANCH   1  11
BRANCH   3  46
HETATM   46  C   LIG     1     -10.258  16.855  67.544  1.00  0.00    -0.036 C 
HETATM   47  H   LIG     1      -9.573  17.340  68.253  1.00  0.00     0.037 H 
HETATM   48  H   LIG     1     -11.253  16.888  68.010  1.00  0.00     0.037 H 
BRANCH  46  49
HETATM   49  C   LIG     1     -10.297  17.669  66.242  1.00  0.00    -0.004 C 
HETATM   50  H   LIG     1     -10.996  18.505  66.335  1.00  0.00     0.064 H 
HETATM   51  H   LIG     1     -10.613  17.042  65.402  1.00  0.00     0.064 H 
BRANCH  49  52
HETATM   52  N   LIG     1      -9.003  18.266  65.918  1.00  0.00    -0.361 N 
HETATM   53  C   LIG     1      -8.625  19.525  66.316  1.00  0.00     0.221 C 
HETATM   54  O   LIG     1      -9.371  20.264  66.959  1.00  0.00    -0.273 OA
HETATM   55  H   LIG     1      -8.316  17.655  65.484  1.00  0.00     0.162 HD
BRANCH  53  56
HETATM   56  C   LIG     1      -7.235  19.978  65.808  1.00  0.00     0.024 C 
HETATM   57  C   LIG     1      -6.593  21.065  66.689  1.00  0.00    -0.051 C 
HETATM   58  C   LIG     1      -6.045  20.540  68.021  1.00  0.00    -0.040 C 
HETATM   59  H   LIG     1      -7.309  21.872  66.888  1.00  0.00     0.034 H 
HETATM   60  H   LIG     1      -5.766  21.521  66.130  1.00  0.00     0.034 H 
HETATM   61  C   LIG     1      -5.204  19.269  67.912  1.00  0.00     0.035 C 
HETATM   62  H   LIG     1      -6.887  20.353  68.697  1.00  0.00     0.036 H 
HETATM   63  H   LIG     1      -5.440  21.337  68.480  1.00  0.00     0.036 H 
HETATM   64  C   LIG     1      -5.794  18.229  66.947  1.00  0.00    -0.040 C 
HETATM   65  H   LIG     1      -5.121  18.813  68.903  1.00  0.00     0.082 H 
HETATM   66  C   LIG     1      -6.224  18.841  65.616  1.00  0.00    -0.051 C 
HETATM   67  H   LIG     1      -6.662  17.750  67.418  1.00  0.00     0.036 H 
HETATM   68  H   LIG     1      -5.053  17.448  66.750  1.00  0.00     0.036 H 
HETATM   69  H   LIG     1      -6.617  18.056  64.964  1.00  0.00     0.034 H 
HETATM   70  H   LIG     1      -5.340  19.241  65.101  1.00  0.00     0.034 H 
HETATM   71  H   LIG     1      -7.430  20.431  64.827  1.00  0.00     0.054 H 
BRANCH  61  72
HETATM   72  O   LIG     1      -3.877  19.604  67.520  1.00  0.00    -0.396 OA
HETATM   73  H   LIG     1      -3.887  19.947  66.615  1.00  0.00     0.210 HD
ENDBRANCH  61  72
ENDBRANCH  53  56
ENDBRANCH  49  52
ENDBRANCH  46  49
ENDBRANCH   3  46
TORSDOF 11
ENDMDL
MODEL 5
REMARK minimizedAffinity -5.67783403
REMARK minimizedRMSD -1
REMARK  11 active torsions:
REMARK  status: ('A' for Active; 'I' for Inactive)
REMARK    1  A    between atoms: N_1  and  S_2 
REMARK    2  A    between atoms: S_2  and  C_5 
REMARK    3  A    between atoms: C_8  and  C_9 
REMARK    4  A    between atoms: C_9  and  C_10 
REMARK    5  A    between atoms: C_14  and  N_15 
REMARK       I    between atoms: N_15  and  C_16 
REMARK       I    between atoms: C_16  and  N_18 
REMARK    6  A    between atoms: N_18  and  C_19 
REMARK    7  A    between atoms: C_21  and  C_22 
REMARK    8  A    between atoms: C_22  and  C_23 
REMARK    9  A    between atoms: C_23  and  N_24 
REMARK       I    between atoms: N_24  and  C_25 
REMARK   10  A    between atoms: C_25  and  C_27 
REMARK   11  A    between atoms: C_30  and  O_31 
ROOT
HETATM    1  C   LIG     1     -10.906  13.600  68.264  1.00  0.00     0.051 C 
HETATM    2  C   LIG     1      -9.692  14.002  67.854  1.00  0.00    -0.063 C 
HETATM    3  C   LIG     1      -9.488  14.805  66.583  1.00  0.00     0.045 C 
HETATM    4  C   LIG     1     -10.666  14.581  65.627  1.00  0.00     0.250 C 
HETATM    5  O   LIG     1     -10.483  14.559  64.411  1.00  0.00    -0.271 OA
HETATM    6  N   LIG     1     -11.923  14.518  66.174  1.00  0.00    -0.224 NA
HETATM    7  C   LIG     1     -12.023  14.054  67.377  1.00  0.00     0.031 C 
HETATM    8  H   LIG     1      -8.798  13.763  68.422  1.00  0.00     0.081 H 
HETATM    9  H   LIG     1      -8.598  14.407  66.079  1.00  0.00     0.061 H 
HETATM   10  H   LIG     1     -13.036  14.036  67.794  1.00  0.00     0.118 H 
ENDROOT
BRANCH   1  11
HETATM   11  N   LIG     1     -11.089  12.889  69.434  1.00  0.00    -0.308 N 
HETATM   12  C   LIG     1     -11.613  11.609  69.529  1.00  0.00     0.325 C 
HETATM   13  N   LIG     1     -11.665  11.136  70.832  1.00  0.00    -0.309 N 
HETATM   14  O   LIG     1     -11.973  10.970  68.549  1.00  0.00    -0.247 OA
HETATM   15  H   LIG     1     -11.031  11.556  71.498  1.00  0.00     0.170 HD
HETATM   16  H   LIG     1     -10.822  13.345  70.294  1.00  0.00     0.170 HD
BRANCH  13  17
HETATM   17  C   LIG     1     -12.208   9.866  71.175  1.00  0.00     0.036 A 
HETATM   18  C   LIG     1     -13.476   9.736  71.749  1.00  0.00    -0.057 A 
HETATM   19  C   LIG     1     -14.056   8.487  71.924  1.00  0.00    -0.080 A 
HETATM   20  H   LIG     1     -14.061  10.599  72.051  1.00  0.00     0.086 H 
HETATM   21  C   LIG     1     -13.355   7.340  71.571  1.00  0.00    -0.076 A 
HETATM   22  H   LIG     1     -15.070   8.414  72.310  1.00  0.00     0.083 H 
HETATM   23  C   LIG     1     -12.041   7.420  71.087  1.00  0.00    -0.052 A 
HETATM   24  H   LIG     1     -13.864   6.386  71.678  1.00  0.00     0.084 H 
HETATM   25  C   LIG     1     -11.475   8.700  70.894  1.00  0.00    -0.051 A 
HETATM   26  H   LIG     1     -10.475   8.777  70.474  1.00  0.00     0.087 H 
BRANCH  23  27
HETATM   27  C   LIG     1     -11.281   6.177  70.660  1.00  0.00    -0.017 C 
HETATM   28  H   LIG     1     -10.555   5.926  71.444  1.00  0.00     0.047 H 
HETATM   29  H   LIG     1     -11.973   5.327  70.600  1.00  0.00     0.047 H 
BRANCH  27  30
HETATM   30  C   LIG     1     -10.559   6.290  69.324  1.00  0.00    -0.054 A 
HETATM   31  C   LIG     1     -11.287   6.414  68.129  1.00  0.00    -0.075 A 
HETATM   32  C   LIG     1     -10.639   6.611  66.906  1.00  0.00    -0.060 A 
HETATM   33  H   LIG     1     -12.378   6.368  68.157  1.00  0.00     0.084 H 
HETATM   34  C   LIG     1      -9.246   6.697  66.876  1.00  0.00     0.074 A 
HETATM   35  H   LIG     1     -11.246   6.691  66.004  1.00  0.00     0.085 H 
HETATM   36  C   LIG     1      -8.499   6.551  68.053  1.00  0.00    -0.060 A 
HETATM   37  C   LIG     1      -9.158   6.349  69.271  1.00  0.00    -0.075 A 
HETATM   38  H   LIG     1      -7.412   6.596  68.029  1.00  0.00     0.085 H 
HETATM   39  H   LIG     1      -8.569   6.266  70.184  1.00  0.00     0.084 H 
BRANCH  34  40
HETATM   40  S   LIG     1      -8.368   6.983  65.350  1.00  0.00     0.239 S 
HETATM   41  O   LIG     1      -6.969   6.622  65.550  1.00  0.00    -0.206 OA
HETATM   42  O   LIG     1      -8.756   8.278  64.877  1.00  0.00    -0.206 OA
BRANCH  40  43
HETATM   43  N   LIG     1      -9.085   5.833  64.325  1.00  0.00    -0.225 NA
HETATM   44  H   LIG     1      -8.468   5.091  63.990  1.00  0.00     0.136 HD
HETATM   45  H   LIG     1      -9.997   5.475  64.634  1.00  0.00     0.136 HD
ENDBRANCH  40  43
ENDBRANCH  34  40
ENDBRANCH  27  30
ENDBRANCH  23  27
ENDBRANCH  13  17
ENDBRANCH   1  11
BRANCH   3  46
HETATM   46  C   LIG     1      -9.296  16.300  66.900  1.00  0.00    -0.036 C 
HETATM   47  H   LIG     1      -9.397  16.443  67.984  1.00  0.00     0.037 H 
HETATM   48  H   LIG     1     -10.102  16.886  66.438  1.00  0.00     0.037 H 
BRANCH  46  49
HETATM   49  C   LIG     1      -7.946  16.869  66.439  1.00  0.00    -0.004 C 
HETATM   50  H   LIG     1      -7.845  17.912  66.752  1.00  0.00     0.064 H 
HETATM   51  H   LIG     1      -7.858  16.823  65.348  1.00  0.00     0.064 H 
BRANCH  49  52
HETATM   52  N   LIG     1      -6.812  16.163  67.029  1.00  0.00    -0.361 N 
HETATM   53  C   LIG     1      -6.408  16.327  68.333  1.00  0.00     0.221 C 
HETATM   54  O   LIG     1      -6.963  17.115  69.099  1.00  0.00    -0.273 OA
HETATM   55  H   LIG     1      -6.392  15.426  66.469  1.00  0.00     0.162 HD
BRANCH  53  56
HETATM   56  C   LIG     1      -5.144  15.526  68.728  1.00  0.00     0.024 C 
HETATM   57  C   LIG     1      -5.048  15.255  70.239  1.00  0.00    -0.051 C 
HETATM   58  C   LIG     1      -6.011  14.172  70.739  1.00  0.00    -0.040 C 
HETATM   59  H   LIG     1      -5.218  16.178  70.808  1.00  0.00     0.034 H 
HETATM   60  H   LIG     1      -4.022  14.940  70.471  1.00  0.00     0.034 H 
HETATM   61  C   LIG     1      -6.039  12.900  69.893  1.00  0.00     0.035 C 
HETATM   62  H   LIG     1      -7.022  14.595  70.780  1.00  0.00     0.036 H 
HETATM   63  H   LIG     1      -5.732  13.915  71.771  1.00  0.00     0.036 H 
HETATM   64  C   LIG     1      -6.027  13.174  68.380  1.00  0.00    -0.040 C 
HETATM   65  H   LIG     1      -6.945  12.334  70.134  1.00  0.00     0.082 H 
HETATM   66  C   LIG     1      -4.970  14.199  67.979  1.00  0.00    -0.051 C 
HETATM   67  H   LIG     1      -7.015  13.538  68.071  1.00  0.00     0.036 H 
HETATM   68  H   LIG     1      -5.835  12.242  67.840  1.00  0.00     0.036 H 
HETATM   69  H   LIG     1      -4.993  14.340  66.895  1.00  0.00     0.034 H 
HETATM   70  H   LIG     1      -3.974  13.797  68.205  1.00  0.00     0.034 H 
HETATM   71  H   LIG     1      -4.303  16.181  68.462  1.00  0.00     0.054 H 
BRANCH  61  72
HETATM   72  O   LIG     1      -4.945  12.063  70.248  1.00  0.00    -0.396 OA
HETATM   73  H   LIG     1      -4.117  12.489  69.986  1.00  0.00     0.210 HD
ENDBRANCH  61  72
ENDBRANCH  53  56
ENDBRANCH  49  52
ENDBRANCH  46  49
ENDBRANCH   3  46
TORSDOF 11
ENDMDL
