MODEL 1
REMARK minimizedAffinity -10.0339813
REMARK minimizedRMSD -1
REMARK  13 active torsions:
REMARK  status: ('A' for Active; 'I' for Inactive)
REMARK    1  A    between atoms: N_1  and  S_2 
REMARK    2  A    between atoms: S_2  and  C_5 
REMARK    3  A    between atoms: C_8  and  C_9 
REMARK    4  A    between atoms: C_9  and  C_10 
REMARK    5  A    between atoms: C_14  and  N_15 
REMARK       I    between atoms: N_15  and  C_16 
REMARK    6  A    between atoms: C_16  and  C_18 
REMARK    7  A    between atoms: C_18  and  S_19 
REMARK    8  A    between atoms: C_18  and  C_20 
REMARK    9  A    between atoms: C_22  and  C_23 
REMARK   10  A    between atoms: C_23  and  C_24 
REMARK   11  A    between atoms: C_24  and  N_25 
REMARK       I    between atoms: N_25  and  C_26 
REMARK   12  A    between atoms: C_26  and  C_28 
REMARK   13  A    between atoms: C_31  and  O_32 
ROOT
HETATM    1  C   LIG     1      -6.949  10.562  62.159  1.00  0.00    -0.018 A 
HETATM    2  C   LIG     1      -6.757  11.435  61.079  1.00  0.00    -0.066 A 
HETATM    3  C   LIG     1      -5.563  12.158  60.944  1.00  0.00    -0.038 A 
HETATM    4  C   LIG     1      -4.598  11.984  61.929  1.00  0.00     0.008 A 
HETATM    5  N   LIG     1      -4.738  11.143  62.979  1.00  0.00    -0.272 NA
HETATM    6  C   LIG     1      -5.883  10.434  63.050  1.00  0.00     0.009 A 
HETATM    7  H   LIG     1      -7.513  11.537  60.303  1.00  0.00     0.085 H 
HETATM    8  H   LIG     1      -3.641  12.498  61.893  1.00  0.00     0.115 H 
HETATM    9  H   LIG     1      -5.919   9.721  63.874  1.00  0.00     0.115 H 
ENDROOT
BRANCH   1  10
HETATM   10  C   LIG     1      -8.185   9.714  62.401  1.00  0.00     0.092 C 
HETATM   11  H   LIG     1      -7.839   8.760  62.815  1.00  0.00     0.078 H 
BRANCH  10  12
HETATM   12  C   LIG     1      -9.141  10.347  63.427  1.00  0.00     0.240 C 
HETATM   13  N   LIG     1      -9.564  11.632  63.104  1.00  0.00    -0.326 N 
HETATM   14  H   LIG     1      -8.884  12.202  62.614  1.00  0.00     0.169 HD
HETATM   15  O   LIG     1      -9.442   9.756  64.464  1.00  0.00    -0.272 OA
BRANCH  13  16
HETATM   16  C   LIG     1     -10.520  12.320  63.875  1.00  0.00     0.035 C 
HETATM   17  C   LIG     1     -11.885  12.188  63.622  1.00  0.00    -0.057 C 
HETATM   18  C   LIG     1     -12.786  13.023  64.277  1.00  0.00    -0.080 C 
HETATM   19  H   LIG     1     -12.264  11.500  62.870  1.00  0.00     0.086 H 
HETATM   20  C   LIG     1     -12.324  13.939  65.225  1.00  0.00    -0.076 C 
HETATM   21  H   LIG     1     -13.845  12.971  64.032  1.00  0.00     0.083 H 
HETATM   22  C   LIG     1     -10.977  13.967  65.620  1.00  0.00    -0.052 C 
HETATM   23  H   LIG     1     -13.042  14.635  65.646  1.00  0.00     0.084 H 
HETATM   24  C   LIG     1     -10.068  13.197  64.873  1.00  0.00    -0.051 C 
HETATM   25  H   LIG     1      -9.004  13.246  65.088  1.00  0.00     0.087 H 
BRANCH  22  26
HETATM   26  C   LIG     1     -10.512  14.825  66.793  1.00  0.00    -0.017 C 
HETATM   27  H   LIG     1      -9.436  14.665  66.947  1.00  0.00     0.047 H 
HETATM   28  H   LIG     1     -10.610  15.886  66.525  1.00  0.00     0.047 H 
BRANCH  26  29
HETATM   29  C   LIG     1     -11.228  14.586  68.121  1.00  0.00    -0.054 A 
HETATM   30  C   LIG     1     -11.315  13.297  68.687  1.00  0.00    -0.075 A 
HETATM   31  C   LIG     1     -11.970  13.085  69.910  1.00  0.00    -0.060 A 
HETATM   32  H   LIG     1     -10.854  12.446  68.189  1.00  0.00     0.084 H 
HETATM   33  C   LIG     1     -12.576  14.160  70.562  1.00  0.00     0.074 A 
HETATM   34  H   LIG     1     -12.004  12.086  70.343  1.00  0.00     0.085 H 
HETATM   35  C   LIG     1     -12.483  15.443  70.036  1.00  0.00    -0.060 A 
HETATM   36  C   LIG     1     -11.784  15.655  68.844  1.00  0.00    -0.075 A 
HETATM   37  H   LIG     1     -12.939  16.290  70.546  1.00  0.00     0.085 H 
HETATM   38  H   LIG     1     -11.676  16.674  68.494  1.00  0.00     0.084 H 
BRANCH  33  39
HETATM   39  S   LIG     1     -13.436  13.924  72.095  1.00  0.00     0.239 S 
HETATM   40  O   LIG     1     -12.797  14.720  73.113  1.00  0.00    -0.206 OA
HETATM   41  O   LIG     1     -13.682  12.506  72.266  1.00  0.00    -0.206 OA
BRANCH  39  42
HETATM   42  N   LIG     1     -14.914  14.653  71.750  1.00  0.00    -0.225 NA
HETATM   43  H   LIG     1     -14.973  15.557  72.220  1.00  0.00     0.136 HD
HETATM   44  H   LIG     1     -15.171  14.681  70.760  1.00  0.00     0.136 HD
ENDBRANCH  39  42
ENDBRANCH  33  39
ENDBRANCH  26  29
ENDBRANCH  22  26
ENDBRANCH  13  16
ENDBRANCH  10  12
BRANCH  10  45
HETATM   45  S   LIG     1      -9.180   9.303  60.921  1.00  0.00    -0.163 SA
HETATM   46  H   LIG     1      -9.684  10.536  60.760  1.00  0.00     0.102 HD
ENDBRANCH  10  45
ENDBRANCH   1  10
BRANCH   3  47
HETATM   47  C   LIG     1      -5.314  13.012  59.732  1.00  0.00    -0.025 C 
HETATM   48  H   LIG     1      -6.268  13.202  59.221  1.00  0.00     0.042 H 
HETATM   49  H   LIG     1      -4.718  12.437  59.011  1.00  0.00     0.042 H 
BRANCH  47  50
HETATM   50  C   LIG     1      -4.636  14.354  60.002  1.00  0.00    -0.001 C 
HETATM   51  H   LIG     1      -3.656  14.418  59.517  1.00  0.00     0.064 H 
HETATM   52  H   LIG     1      -4.485  14.514  61.076  1.00  0.00     0.064 H 
BRANCH  50  53
HETATM   53  N   LIG     1      -5.458  15.441  59.501  1.00  0.00    -0.360 N 
HETATM   54  C   LIG     1      -5.355  15.910  58.212  1.00  0.00     0.221 C 
HETATM   55  O   LIG     1      -4.569  15.439  57.397  1.00  0.00    -0.273 OA
HETATM   56  H   LIG     1      -6.158  15.847  60.108  1.00  0.00     0.162 HD
BRANCH  54  57
HETATM   57  C   LIG     1      -6.340  17.043  57.897  1.00  0.00     0.024 C 
HETATM   58  C   LIG     1      -5.887  18.390  58.479  1.00  0.00    -0.051 C 
HETATM   59  C   LIG     1      -4.670  18.955  57.743  1.00  0.00    -0.040 C 
HETATM   60  H   LIG     1      -5.649  18.309  59.545  1.00  0.00     0.034 H 
HETATM   61  H   LIG     1      -6.718  19.103  58.407  1.00  0.00     0.034 H 
HETATM   62  C   LIG     1      -4.902  19.063  56.238  1.00  0.00     0.035 C 
HETATM   63  H   LIG     1      -3.800  18.316  57.938  1.00  0.00     0.036 H 
HETATM   64  H   LIG     1      -4.446  19.946  58.157  1.00  0.00     0.036 H 
HETATM   65  C   LIG     1      -5.425  17.766  55.625  1.00  0.00    -0.040 C 
HETATM   66  H   LIG     1      -3.964  19.353  55.750  1.00  0.00     0.082 H 
HETATM   67  C   LIG     1      -6.612  17.181  56.395  1.00  0.00    -0.051 C 
HETATM   68  H   LIG     1      -4.612  17.033  55.589  1.00  0.00     0.036 H 
HETATM   69  H   LIG     1      -5.742  17.941  54.589  1.00  0.00     0.036 H 
HETATM   70  H   LIG     1      -6.883  16.209  55.964  1.00  0.00     0.034 H 
HETATM   71  H   LIG     1      -7.484  17.836  56.258  1.00  0.00     0.034 H 
HETATM   72  H   LIG     1      -7.283  16.755  58.382  1.00  0.00     0.054 H 
BRANCH  62  73
HETATM   73  O   LIG     1      -5.846  20.104  56.001  1.00  0.00    -0.396 OA
HETATM   74  H   LIG     1      -5.887  20.236  55.036  1.00  0.00     0.210 HD
ENDBRANCH  62  73
ENDBRANCH  54  57
ENDBRANCH  50  53
ENDBRANCH  47  50
ENDBRANCH   3  47
TORSDOF 13
ENDMDL
MODEL 2
REMARK minimizedAffinity -9.48791313
REMARK minimizedRMSD -1
REMARK  13 active torsions:
REMARK  status: ('A' for Active; 'I' for Inactive)
REMARK    1  A    between atoms: N_1  and  S_2 
REMARK    2  A    between atoms: S_2  and  C_5 
REMARK    3  A    between atoms: C_8  and  C_9 
REMARK    4  A    between atoms: C_9  and  C_10 
REMARK    5  A    between atoms: C_14  and  N_15 
REMARK       I    between atoms: N_15  and  C_16 
REMARK    6  A    between atoms: C_16  and  C_18 
REMARK    7  A    between atoms: C_18  and  S_19 
REMARK    8  A    between atoms: C_18  and  C_20 
REMARK    9  A    between atoms: C_22  and  C_23 
REMARK   10  A    between atoms: C_23  and  C_24 
REMARK   11  A    between atoms: C_24  and  N_25 
REMARK       I    between atoms: N_25  and  C_26 
REMARK   12  A    between atoms: C_26  and  C_28 
REMARK   13  A    between atoms: C_31  and  O_32 
ROOT
HETATM    1  C   LIG     1      -6.973  10.597  62.161  1.00  0.00    -0.018 A 
HETATM    2  C   LIG     1      -6.771  11.464  61.078  1.00  0.00    -0.066 A 
HETATM    3  C   LIG     1      -5.564  12.165  60.936  1.00  0.00    -0.038 A 
HETATM    4  C   LIG     1      -4.598  11.975  61.916  1.00  0.00     0.008 A 
HETATM    5  N   LIG     1      -4.747  11.138  62.968  1.00  0.00    -0.272 NA
HETATM    6  C   LIG     1      -5.905  10.451  63.047  1.00  0.00     0.009 A 
HETATM    7  H   LIG     1      -7.529  11.578  60.306  1.00  0.00     0.085 H 
HETATM    8  H   LIG     1      -3.631  12.471  61.874  1.00  0.00     0.115 H 
HETATM    9  H   LIG     1      -5.950   9.740  63.872  1.00  0.00     0.115 H 
ENDROOT
BRANCH   1  10
HETATM   10  C   LIG     1      -8.223   9.773  62.411  1.00  0.00     0.092 C 
HETATM   11  H   LIG     1      -7.891   8.799  62.792  1.00  0.00     0.078 H 
BRANCH  10  12
HETATM   12  C   LIG     1      -9.139  10.400  63.477  1.00  0.00     0.240 C 
HETATM   13  N   LIG     1      -9.573  11.687  63.177  1.00  0.00    -0.326 N 
HETATM   14  H   LIG     1      -8.912  12.259  62.665  1.00  0.00     0.169 HD
HETATM   15  O   LIG     1      -9.399   9.804  64.522  1.00  0.00    -0.272 OA
BRANCH  13  16
HETATM   16  C   LIG     1     -10.498  12.371  63.989  1.00  0.00     0.035 C 
HETATM   17  C   LIG     1     -11.871  12.281  63.757  1.00  0.00    -0.057 C 
HETATM   18  C   LIG     1     -12.738  13.115  64.456  1.00  0.00    -0.080 C 
HETATM   19  H   LIG     1     -12.279  11.630  62.988  1.00  0.00     0.086 H 
HETATM   20  C   LIG     1     -12.237  13.986  65.426  1.00  0.00    -0.076 C 
HETATM   21  H   LIG     1     -13.802  13.098  64.228  1.00  0.00     0.083 H 
HETATM   22  C   LIG     1     -10.884  13.967  65.797  1.00  0.00    -0.052 C 
HETATM   23  H   LIG     1     -12.930  14.684  65.883  1.00  0.00     0.084 H 
HETATM   24  C   LIG     1     -10.007  13.201  65.008  1.00  0.00    -0.051 C 
HETATM   25  H   LIG     1      -8.939  13.216  65.205  1.00  0.00     0.087 H 
BRANCH  22  26
HETATM   26  C   LIG     1     -10.377  14.772  66.990  1.00  0.00    -0.017 C 
HETATM   27  H   LIG     1      -9.340  14.479  67.204  1.00  0.00     0.047 H 
HETATM   28  H   LIG     1     -10.325  15.834  66.713  1.00  0.00     0.047 H 
BRANCH  26  29
HETATM   29  C   LIG     1     -11.188  14.639  68.279  1.00  0.00    -0.054 A 
HETATM   30  C   LIG     1     -11.297  13.406  68.953  1.00  0.00    -0.075 A 
HETATM   31  C   LIG     1     -12.040  13.292  70.139  1.00  0.00    -0.060 A 
HETATM   32  H   LIG     1     -10.788  12.524  68.571  1.00  0.00     0.084 H 
HETATM   33  C   LIG     1     -12.709  14.408  70.642  1.00  0.00     0.074 A 
HETATM   34  H   LIG     1     -12.091  12.336  70.659  1.00  0.00     0.085 H 
HETATM   35  C   LIG     1     -12.596  15.640  70.008  1.00  0.00    -0.060 A 
HETATM   36  C   LIG     1     -11.813  15.757  68.856  1.00  0.00    -0.075 A 
HETATM   37  H   LIG     1     -13.102  16.520  70.403  1.00  0.00     0.085 H 
HETATM   38  H   LIG     1     -11.694  16.743  68.423  1.00  0.00     0.084 H 
BRANCH  33  39
HETATM   39  S   LIG     1     -13.679  14.294  72.123  1.00  0.00     0.239 S 
HETATM   40  O   LIG     1     -13.970  12.906  72.382  1.00  0.00    -0.206 OA
HETATM   41  O   LIG     1     -14.719  15.302  72.065  1.00  0.00    -0.206 OA
BRANCH  39  42
HETATM   42  N   LIG     1     -12.560  14.791  73.280  1.00  0.00    -0.225 NA
HETATM   43  H   LIG     1     -12.230  13.984  73.811  1.00  0.00     0.136 HD
HETATM   44  H   LIG     1     -11.811  15.398  72.936  1.00  0.00     0.136 HD
ENDBRANCH  39  42
ENDBRANCH  33  39
ENDBRANCH  26  29
ENDBRANCH  22  26
ENDBRANCH  13  16
ENDBRANCH  10  12
BRANCH  10  45
HETATM   45  S   LIG     1      -9.263   9.425  60.946  1.00  0.00    -0.163 SA
HETATM   46  H   LIG     1      -9.741  10.673  60.831  1.00  0.00     0.102 HD
ENDBRANCH  10  45
ENDBRANCH   1  10
BRANCH   3  47
HETATM   47  C   LIG     1      -5.306  13.012  59.720  1.00  0.00    -0.025 C 
HETATM   48  H   LIG     1      -5.301  14.071  60.012  1.00  0.00     0.042 H 
HETATM   49  H   LIG     1      -6.156  12.911  59.033  1.00  0.00     0.042 H 
BRANCH  47  50
HETATM   50  C   LIG     1      -4.006  12.711  58.975  1.00  0.00    -0.001 C 
HETATM   51  H   LIG     1      -3.127  13.005  59.559  1.00  0.00     0.064 H 
HETATM   52  H   LIG     1      -3.964  13.245  58.019  1.00  0.00     0.064 H 
BRANCH  50  53
HETATM   53  N   LIG     1      -3.906  11.290  58.697  1.00  0.00    -0.360 N 
HETATM   54  C   LIG     1      -4.542  10.700  57.628  1.00  0.00     0.221 C 
HETATM   55  O   LIG     1      -5.228  11.335  56.835  1.00  0.00    -0.273 OA
HETATM   56  H   LIG     1      -3.321  10.714  59.288  1.00  0.00     0.162 HD
BRANCH  54  57
HETATM   57  C   LIG     1      -4.272   9.194  57.516  1.00  0.00     0.024 C 
HETATM   58  C   LIG     1      -3.617   8.623  58.782  1.00  0.00    -0.051 C 
HETATM   59  C   LIG     1      -4.587   8.579  59.963  1.00  0.00    -0.040 C 
HETATM   60  H   LIG     1      -2.731   9.198  59.072  1.00  0.00     0.034 H 
HETATM   61  H   LIG     1      -3.261   7.607  58.567  1.00  0.00     0.034 H 
HETATM   62  C   LIG     1      -5.873   7.826  59.630  1.00  0.00     0.035 C 
HETATM   63  H   LIG     1      -4.828   9.602  60.272  1.00  0.00     0.036 H 
HETATM   64  H   LIG     1      -4.081   8.094  60.808  1.00  0.00     0.036 H 
HETATM   65  C   LIG     1      -6.524   8.311  58.336  1.00  0.00    -0.040 C 
HETATM   66  H   LIG     1      -6.578   7.932  60.463  1.00  0.00     0.082 H 
HETATM   67  C   LIG     1      -5.536   8.399  57.170  1.00  0.00    -0.051 C 
HETATM   68  H   LIG     1      -6.978   9.293  58.509  1.00  0.00     0.036 H 
HETATM   69  H   LIG     1      -7.336   7.632  58.047  1.00  0.00     0.036 H 
HETATM   70  H   LIG     1      -6.038   8.837  56.299  1.00  0.00     0.034 H 
HETATM   71  H   LIG     1      -5.238   7.382  56.878  1.00  0.00     0.034 H 
HETATM   72  H   LIG     1      -3.568   9.083  56.680  1.00  0.00     0.054 H 
BRANCH  62  73
HETATM   73  O   LIG     1      -5.565   6.440  59.505  1.00  0.00    -0.396 OA
HETATM   74  H   LIG     1      -6.412   5.968  59.413  1.00  0.00     0.210 HD
ENDBRANCH  62  73
ENDBRANCH  54  57
ENDBRANCH  50  53
ENDBRANCH  47  50
ENDBRANCH   3  47
TORSDOF 13
ENDMDL
MODEL 3
REMARK minimizedAffinity -8.75210762
REMARK minimizedRMSD -1
REMARK  13 active torsions:
REMARK  status: ('A' for Active; 'I' for Inactive)
REMARK    1  A    between atoms: N_1  and  S_2 
REMARK    2  A    between atoms: S_2  and  C_5 
REMARK    3  A    between atoms: C_8  and  C_9 
REMARK    4  A    between atoms: C_9  and  C_10 
REMARK    5  A    between atoms: C_14  and  N_15 
REMARK       I    between atoms: N_15  and  C_16 
REMARK    6  A    between atoms: C_16  and  C_18 
REMARK    7  A    between atoms: C_18  and  S_19 
REMARK    8  A    between atoms: C_18  and  C_20 
REMARK    9  A    between atoms: C_22  and  C_23 
REMARK   10  A    between atoms: C_23  and  C_24 
REMARK   11  A    between atoms: C_24  and  N_25 
REMARK       I    between atoms: N_25  and  C_26 
REMARK   12  A    between atoms: C_26  and  C_28 
REMARK   13  A    between atoms: C_31  and  O_32 
ROOT
HETATM    1  C   LIG     1      -6.924   9.410  65.159  1.00  0.00    -0.018 A 
HETATM    2  C   LIG     1      -5.963  10.430  65.098  1.00  0.00    -0.066 A 
HETATM    3  C   LIG     1      -4.820  10.388  65.910  1.00  0.00    -0.038 A 
HETATM    4  C   LIG     1      -4.695   9.310  66.779  1.00  0.00     0.008 A 
HETATM    5  N   LIG     1      -5.591   8.300  66.859  1.00  0.00    -0.272 NA
HETATM    6  C   LIG     1      -6.655   8.356  66.032  1.00  0.00     0.009 A 
HETATM    7  H   LIG     1      -6.065  11.251  64.392  1.00  0.00     0.085 H 
HETATM    8  H   LIG     1      -3.834   9.197  67.433  1.00  0.00     0.115 H 
HETATM    9  H   LIG     1      -7.311   7.487  66.085  1.00  0.00     0.115 H 
ENDROOT
BRANCH   1  10
HETATM   10  C   LIG     1      -8.187   9.336  64.320  1.00  0.00     0.092 C 
HETATM   11  H   LIG     1      -8.605   8.332  64.464  1.00  0.00     0.078 H 
BRANCH  10  12
HETATM   12  C   LIG     1      -9.252  10.351  64.768  1.00  0.00     0.240 C 
HETATM   13  N   LIG     1      -9.364  11.468  63.947  1.00  0.00    -0.326 N 
HETATM   14  H   LIG     1      -8.500  11.783  63.522  1.00  0.00     0.169 HD
HETATM   15  O   LIG     1      -9.896  10.183  65.804  1.00  0.00    -0.272 OA
BRANCH  13  16
HETATM   16  C   LIG     1     -10.356  12.447  64.148  1.00  0.00     0.035 C 
HETATM   17  C   LIG     1     -11.594  12.366  63.507  1.00  0.00    -0.057 C 
HETATM   18  C   LIG     1     -12.473  13.441  63.581  1.00  0.00    -0.080 C 
HETATM   19  H   LIG     1     -11.862  11.514  62.888  1.00  0.00     0.086 H 
HETATM   20  C   LIG     1     -12.140  14.563  64.344  1.00  0.00    -0.076 C 
HETATM   21  H   LIG     1     -13.409  13.411  63.026  1.00  0.00     0.083 H 
HETATM   22  C   LIG     1     -10.981  14.592  65.135  1.00  0.00    -0.052 C 
HETATM   23  H   LIG     1     -12.807  15.417  64.303  1.00  0.00     0.084 H 
HETATM   24  C   LIG     1     -10.055  13.548  64.963  1.00  0.00    -0.051 C 
HETATM   25  H   LIG     1      -9.106  13.565  65.492  1.00  0.00     0.087 H 
BRANCH  22  26
HETATM   26  C   LIG     1     -10.720  15.729  66.118  1.00  0.00    -0.017 C 
HETATM   27  H   LIG     1      -9.643  15.948  66.132  1.00  0.00     0.047 H 
HETATM   28  H   LIG     1     -11.194  16.646  65.744  1.00  0.00     0.047 H 
BRANCH  26  29
HETATM   29  C   LIG     1     -11.179  15.489  67.555  1.00  0.00    -0.054 A 
HETATM   30  C   LIG     1     -12.029  14.413  67.884  1.00  0.00    -0.075 A 
HETATM   31  C   LIG     1     -12.443  14.196  69.207  1.00  0.00    -0.060 A 
HETATM   32  H   LIG     1     -12.362  13.721  67.114  1.00  0.00     0.084 H 
HETATM   33  C   LIG     1     -12.036  15.076  70.210  1.00  0.00     0.074 A 
HETATM   34  H   LIG     1     -13.079  13.344  69.445  1.00  0.00     0.085 H 
HETATM   35  C   LIG     1     -11.178  16.129  69.914  1.00  0.00    -0.060 A 
HETATM   36  C   LIG     1     -10.728  16.309  68.603  1.00  0.00    -0.075 A 
HETATM   37  H   LIG     1     -10.842  16.812  70.693  1.00  0.00     0.085 H 
HETATM   38  H   LIG     1     -10.011  17.100  68.417  1.00  0.00     0.084 H 
BRANCH  33  39
HETATM   39  S   LIG     1     -12.562  14.847  71.889  1.00  0.00     0.239 S 
HETATM   40  O   LIG     1     -11.776  15.702  72.742  1.00  0.00    -0.206 OA
HETATM   41  O   LIG     1     -12.697  13.425  72.134  1.00  0.00    -0.206 OA
BRANCH  39  42
HETATM   42  N   LIG     1     -14.115  15.498  71.830  1.00  0.00    -0.225 NA
HETATM   43  H   LIG     1     -14.125  16.411  72.284  1.00  0.00     0.136 HD
HETATM   44  H   LIG     1     -14.564  15.484  70.911  1.00  0.00     0.136 HD
ENDBRANCH  39  42
ENDBRANCH  33  39
ENDBRANCH  26  29
ENDBRANCH  22  26
ENDBRANCH  13  16
ENDBRANCH  10  12
BRANCH  10  45
HETATM   45  S   LIG     1      -7.967   9.549  62.515  1.00  0.00    -0.163 SA
HETATM   46  H   LIG     1      -7.718  10.865  62.572  1.00  0.00     0.102 HD
ENDBRANCH  10  45
ENDBRANCH   1  10
BRANCH   3  47
HETATM   47  C   LIG     1      -3.739  11.424  65.770  1.00  0.00    -0.025 C 
HETATM   48  H   LIG     1      -4.136  12.289  65.222  1.00  0.00     0.042 H 
HETATM   49  H   LIG     1      -2.946  11.021  65.126  1.00  0.00     0.042 H 
BRANCH  47  50
HETATM   50  C   LIG     1      -3.133  11.921  67.081  1.00  0.00    -0.001 C 
HETATM   51  H   LIG     1      -2.614  12.877  66.951  1.00  0.00     0.064 H 
HETATM   52  H   LIG     1      -2.409  11.202  67.483  1.00  0.00     0.064 H 
BRANCH  50  53
HETATM   53  N   LIG     1      -4.175  12.107  68.076  1.00  0.00    -0.360 N 
HETATM   54  C   LIG     1      -4.784  13.322  68.289  1.00  0.00     0.221 C 
HETATM   55  O   LIG     1      -4.496  14.327  67.649  1.00  0.00    -0.273 OA
HETATM   56  H   LIG     1      -4.491  11.308  68.610  1.00  0.00     0.162 HD
BRANCH  54  57
HETATM   57  C   LIG     1      -5.872  13.275  69.369  1.00  0.00     0.024 C 
HETATM   58  C   LIG     1      -6.996  14.288  69.110  1.00  0.00    -0.051 C 
HETATM   59  C   LIG     1      -7.865  13.892  67.915  1.00  0.00    -0.040 C 
HETATM   60  H   LIG     1      -6.600  15.295  68.942  1.00  0.00     0.034 H 
HETATM   61  H   LIG     1      -7.623  14.356  70.009  1.00  0.00     0.034 H 
HETATM   62  C   LIG     1      -8.428  12.479  68.050  1.00  0.00     0.035 C 
HETATM   63  H   LIG     1      -7.273  13.967  66.996  1.00  0.00     0.036 H 
HETATM   64  H   LIG     1      -8.688  14.614  67.832  1.00  0.00     0.036 H 
HETATM   65  C   LIG     1      -7.354  11.444  68.381  1.00  0.00    -0.040 C 
HETATM   66  H   LIG     1      -8.935  12.204  67.118  1.00  0.00     0.082 H 
HETATM   67  C   LIG     1      -6.458  11.870  69.548  1.00  0.00    -0.051 C 
HETATM   68  H   LIG     1      -6.741  11.266  67.492  1.00  0.00     0.036 H 
HETATM   69  H   LIG     1      -7.824  10.487  68.642  1.00  0.00     0.036 H 
HETATM   70  H   LIG     1      -5.655  11.134  69.678  1.00  0.00     0.034 H 
HETATM   71  H   LIG     1      -7.047  11.854  70.475  1.00  0.00     0.034 H 
HETATM   72  H   LIG     1      -5.367  13.548  70.306  1.00  0.00     0.054 H 
BRANCH  62  73
HETATM   73  O   LIG     1      -9.408  12.481  69.085  1.00  0.00    -0.396 OA
HETATM   74  H   LIG     1      -9.836  11.606  69.073  1.00  0.00     0.210 HD
ENDBRANCH  62  73
ENDBRANCH  54  57
ENDBRANCH  50  53
ENDBRANCH  47  50
ENDBRANCH   3  47
TORSDOF 13
ENDMDL
MODEL 4
REMARK minimizedAffinity -8.17763042
REMARK minimizedRMSD -1
REMARK  13 active torsions:
REMARK  status: ('A' for Active; 'I' for Inactive)
REMARK    1  A    between atoms: N_1  and  S_2 
REMARK    2  A    between atoms: S_2  and  C_5 
REMARK    3  A    between atoms: C_8  and  C_9 
REMARK    4  A    between atoms: C_9  and  C_10 
REMARK    5  A    between atoms: C_14  and  N_15 
REMARK       I    between atoms: N_15  and  C_16 
REMARK    6  A    between atoms: C_16  and  C_18 
REMARK    7  A    between atoms: C_18  and  S_19 
REMARK    8  A    between atoms: C_18  and  C_20 
REMARK    9  A    between atoms: C_22  and  C_23 
REMARK   10  A    between atoms: C_23  and  C_24 
REMARK   11  A    between atoms: C_24  and  N_25 
REMARK       I    between atoms: N_25  and  C_26 
REMARK   12  A    between atoms: C_26  and  C_28 
REMARK   13  A    between atoms: C_31  and  O_32 
ROOT
HETATM    1  C   LIG     1      -4.989  18.309  68.995  1.00  0.00    -0.018 A 
HETATM    2  C   LIG     1      -4.998  18.664  67.638  1.00  0.00    -0.066 A 
HETATM    3  C   LIG     1      -5.467  19.921  67.229  1.00  0.00    -0.038 A 
HETATM    4  C   LIG     1      -5.932  20.780  68.218  1.00  0.00     0.008 A 
HETATM    5  N   LIG     1      -5.929  20.482  69.537  1.00  0.00    -0.272 NA
HETATM    6  C   LIG     1      -5.432  19.281  69.894  1.00  0.00     0.009 A 
HETATM    7  H   LIG     1      -4.604  17.988  66.882  1.00  0.00     0.085 H 
HETATM    8  H   LIG     1      -6.302  21.776  67.986  1.00  0.00     0.115 H 
HETATM    9  H   LIG     1      -5.387  19.115  70.970  1.00  0.00     0.115 H 
ENDROOT
BRANCH   1  10
HETATM   10  C   LIG     1      -4.491  16.991  69.559  1.00  0.00     0.092 C 
HETATM   11  H   LIG     1      -4.283  17.160  70.623  1.00  0.00     0.078 H 
BRANCH  10  12
HETATM   12  C   LIG     1      -5.544  15.873  69.463  1.00  0.00     0.240 C 
HETATM   13  N   LIG     1      -5.736  15.372  68.180  1.00  0.00    -0.326 N 
HETATM   14  H   LIG     1      -5.632  16.046  67.431  1.00  0.00     0.169 HD
HETATM   15  O   LIG     1      -6.183  15.515  70.452  1.00  0.00    -0.272 OA
BRANCH  13  16
HETATM   16  C   LIG     1      -6.584  14.278  67.925  1.00  0.00     0.035 C 
HETATM   17  C   LIG     1      -6.106  12.967  67.959  1.00  0.00    -0.057 C 
HETATM   18  C   LIG     1      -6.922  11.930  67.519  1.00  0.00    -0.080 C 
HETATM   19  H   LIG     1      -5.083  12.740  68.249  1.00  0.00     0.086 H 
HETATM   20  C   LIG     1      -8.230  12.198  67.109  1.00  0.00    -0.076 C 
HETATM   21  H   LIG     1      -6.529  10.916  67.478  1.00  0.00     0.083 H 
HETATM   22  C   LIG     1      -8.787  13.481  67.232  1.00  0.00    -0.052 C 
HETATM   23  H   LIG     1      -8.805  11.381  66.687  1.00  0.00     0.084 H 
HETATM   24  C   LIG     1      -7.918  14.533  67.573  1.00  0.00    -0.051 C 
HETATM   25  H   LIG     1      -8.283  15.556  67.603  1.00  0.00     0.087 H 
BRANCH  22  26
HETATM   26  C   LIG     1     -10.270  13.730  66.974  1.00  0.00    -0.017 C 
HETATM   27  H   LIG     1     -10.375  14.604  66.315  1.00  0.00     0.047 H 
HETATM   28  H   LIG     1     -10.684  12.888  66.404  1.00  0.00     0.047 H 
BRANCH  26  29
HETATM   29  C   LIG     1     -11.135  13.958  68.213  1.00  0.00    -0.054 A 
HETATM   30  C   LIG     1     -11.387  12.920  69.133  1.00  0.00    -0.075 A 
HETATM   31  C   LIG     1     -12.179  13.137  70.271  1.00  0.00    -0.060 A 
HETATM   32  H   LIG     1     -10.952  11.934  68.982  1.00  0.00     0.084 H 
HETATM   33  C   LIG     1     -12.755  14.390  70.480  1.00  0.00     0.074 A 
HETATM   34  H   LIG     1     -12.341  12.329  70.984  1.00  0.00     0.085 H 
HETATM   35  C   LIG     1     -12.501  15.436  69.600  1.00  0.00    -0.060 A 
HETATM   36  C   LIG     1     -11.669  15.226  68.496  1.00  0.00    -0.075 A 
HETATM   37  H   LIG     1     -12.934  16.422  69.764  1.00  0.00     0.085 H 
HETATM   38  H   LIG     1     -11.440  16.076  67.865  1.00  0.00     0.084 H 
BRANCH  33  39
HETATM   39  S   LIG     1     -13.784  14.693  71.893  1.00  0.00     0.239 S 
HETATM   40  O   LIG     1     -13.745  13.537  72.753  1.00  0.00    -0.206 OA
HETATM   41  O   LIG     1     -15.032  15.270  71.433  1.00  0.00    -0.206 OA
BRANCH  39  42
HETATM   42  N   LIG     1     -12.919  15.915  72.666  1.00  0.00    -0.225 NA
HETATM   43  H   LIG     1     -12.445  15.537  73.487  1.00  0.00     0.136 HD
HETATM   44  H   LIG     1     -12.317  16.479  72.060  1.00  0.00     0.136 HD
ENDBRANCH  39  42
ENDBRANCH  33  39
ENDBRANCH  26  29
ENDBRANCH  22  26
ENDBRANCH  13  16
ENDBRANCH  10  12
BRANCH  10  45
HETATM   45  S   LIG     1      -2.945  16.337  68.829  1.00  0.00    -0.163 SA
HETATM   46  H   LIG     1      -3.499  15.977  67.662  1.00  0.00     0.102 HD
ENDBRANCH  10  45
ENDBRANCH   1  10
BRANCH   3  47
HETATM   47  C   LIG     1      -5.379  20.343  65.789  1.00  0.00    -0.025 C 
HETATM   48  H   LIG     1      -4.324  20.361  65.481  1.00  0.00     0.042 H 
HETATM   49  H   LIG     1      -5.715  21.385  65.704  1.00  0.00     0.042 H 
BRANCH  47  50
HETATM   50  C   LIG     1      -6.154  19.473  64.801  1.00  0.00    -0.001 C 
HETATM   51  H   LIG     1      -5.672  18.500  64.652  1.00  0.00     0.064 H 
HETATM   52  H   LIG     1      -6.234  19.958  63.821  1.00  0.00     0.064 H 
BRANCH  50  53
HETATM   53  N   LIG     1      -7.500  19.237  65.292  1.00  0.00    -0.360 N 
HETATM   54  C   LIG     1      -7.880  18.042  65.859  1.00  0.00     0.221 C 
HETATM   55  O   LIG     1      -7.108  17.099  65.995  1.00  0.00    -0.273 OA
HETATM   56  H   LIG     1      -8.177  19.987  65.249  1.00  0.00     0.162 HD
BRANCH  54  57
HETATM   57  C   LIG     1      -9.341  18.029  66.328  1.00  0.00     0.024 C 
HETATM   58  C   LIG     1      -9.487  17.519  67.769  1.00  0.00    -0.051 C 
HETATM   59  C   LIG     1      -8.942  18.519  68.791  1.00  0.00    -0.040 C 
HETATM   60  H   LIG     1      -8.981  16.559  67.910  1.00  0.00     0.034 H 
HETATM   61  H   LIG     1     -10.549  17.335  67.972  1.00  0.00     0.034 H 
HETATM   62  C   LIG     1      -9.568  19.904  68.638  1.00  0.00     0.035 C 
HETATM   63  H   LIG     1      -7.854  18.592  68.683  1.00  0.00     0.036 H 
HETATM   64  H   LIG     1      -9.144  18.129  69.797  1.00  0.00     0.036 H 
HETATM   65  C   LIG     1      -9.512  20.423  67.203  1.00  0.00    -0.040 C 
HETATM   66  H   LIG     1      -9.056  20.605  69.307  1.00  0.00     0.082 H 
HETATM   67  C   LIG     1     -10.013  19.398  66.181  1.00  0.00    -0.051 C 
HETATM   68  H   LIG     1      -8.482  20.707  66.964  1.00  0.00     0.036 H 
HETATM   69  H   LIG     1     -10.124  21.329  67.108  1.00  0.00     0.036 H 
HETATM   70  H   LIG     1      -9.864  19.792  65.167  1.00  0.00     0.034 H 
HETATM   71  H   LIG     1     -11.097  19.269  66.307  1.00  0.00     0.034 H 
HETATM   72  H   LIG     1      -9.859  17.329  65.658  1.00  0.00     0.054 H 
BRANCH  62  73
HETATM   73  O   LIG     1     -10.929  19.832  69.055  1.00  0.00    -0.396 OA
HETATM   74  H   LIG     1     -11.272  20.744  69.064  1.00  0.00     0.210 HD
ENDBRANCH  62  73
ENDBRANCH  54  57
ENDBRANCH  50  53
ENDBRANCH  47  50
ENDBRANCH   3  47
TORSDOF 13
ENDMDL
MODEL 5
REMARK minimizedAffinity -7.24421978
REMARK minimizedRMSD -1
REMARK  13 active torsions:
REMARK  status: ('A' for Active; 'I' for Inactive)
REMARK    1  A    between atoms: N_1  and  S_2 
REMARK    2  A    between atoms: S_2  and  C_5 
REMARK    3  A    between atoms: C_8  and  C_9 
REMARK    4  A    between atoms: C_9  and  C_10 
REMARK    5  A    between atoms: C_14  and  N_15 
REMARK       I    between atoms: N_15  and  C_16 
REMARK    6  A    between atoms: C_16  and  C_18 
REMARK    7  A    between atoms: C_18  and  S_19 
REMARK    8  A    between atoms: C_18  and  C_20 
REMARK    9  A    between atoms: C_22  and  C_23 
REMARK   10  A    between atoms: C_23  and  C_24 
REMARK   11  A    between atoms: C_24  and  N_25 
REMARK       I    between atoms: N_25  and  C_26 
REMARK   12  A    between atoms: C_26  and  C_28 
REMARK   13  A    between atoms: C_31  and  O_32 
ROOT
HETATM    1  C   LIG     1      -4.521  18.723  69.187  1.00  0.00    -0.018 A 
HETATM    2  C   LIG     1      -4.576  18.882  67.795  1.00  0.00    -0.066 A 
HETATM    3  C   LIG     1      -5.315  19.927  67.222  1.00  0.00    -0.038 A 
HETATM    4  C   LIG     1      -5.996  20.775  68.086  1.00  0.00     0.008 A 
HETATM    5  N   LIG     1      -5.959  20.665  69.433  1.00  0.00    -0.272 NA
HETATM    6  C   LIG     1      -5.204  19.673  69.948  1.00  0.00     0.009 A 
HETATM    7  H   LIG     1      -4.013  18.224  67.136  1.00  0.00     0.085 H 
HETATM    8  H   LIG     1      -6.582  21.616  67.723  1.00  0.00     0.115 H 
HETATM    9  H   LIG     1      -5.151  19.667  71.036  1.00  0.00     0.115 H 
ENDROOT
BRANCH   1  10
HETATM   10  C   LIG     1      -3.743  17.647  69.923  1.00  0.00     0.092 C 
HETATM   11  H   LIG     1      -3.579  18.015  70.943  1.00  0.00     0.078 H 
BRANCH  10  12
HETATM   12  C   LIG     1      -4.521  16.324  70.027  1.00  0.00     0.240 C 
HETATM   13  N   LIG     1      -4.861  15.758  68.802  1.00  0.00    -0.326 N 
HETATM   14  H   LIG     1      -5.065  16.419  68.061  1.00  0.00     0.169 HD
HETATM   15  O   LIG     1      -4.847  15.861  71.120  1.00  0.00    -0.272 OA
BRANCH  13  16
HETATM   16  C   LIG     1      -5.483  14.498  68.708  1.00  0.00     0.035 C 
HETATM   17  C   LIG     1      -4.735  13.335  68.522  1.00  0.00    -0.057 C 
HETATM   18  C   LIG     1      -5.391  12.139  68.245  1.00  0.00    -0.080 C 
HETATM   19  H   LIG     1      -3.649  13.349  68.512  1.00  0.00     0.086 H 
HETATM   20  C   LIG     1      -6.786  12.098  68.219  1.00  0.00    -0.076 C 
HETATM   21  H   LIG     1      -4.810  11.244  68.031  1.00  0.00     0.083 H 
HETATM   22  C   LIG     1      -7.558  13.217  68.575  1.00  0.00    -0.052 C 
HETATM   23  H   LIG     1      -7.259  11.173  67.910  1.00  0.00     0.084 H 
HETATM   24  C   LIG     1      -6.884  14.439  68.743  1.00  0.00    -0.051 C 
HETATM   25  H   LIG     1      -7.443  15.350  68.940  1.00  0.00     0.087 H 
BRANCH  22  26
HETATM   26  C   LIG     1      -9.071  13.117  68.739  1.00  0.00    -0.017 C 
HETATM   27  H   LIG     1      -9.302  12.270  69.401  1.00  0.00     0.047 H 
HETATM   28  H   LIG     1      -9.436  14.005  69.271  1.00  0.00     0.047 H 
BRANCH  26  29
HETATM   29  C   LIG     1      -9.874  12.950  67.450  1.00  0.00    -0.054 A 
HETATM   30  C   LIG     1     -10.117  14.042  66.591  1.00  0.00    -0.075 A 
HETATM   31  C   LIG     1     -10.853  13.881  65.407  1.00  0.00    -0.060 A 
HETATM   32  H   LIG     1      -9.719  15.026  66.827  1.00  0.00     0.084 H 
HETATM   33  C   LIG     1     -11.381  12.630  65.088  1.00  0.00     0.074 A 
HETATM   34  H   LIG     1     -11.008  14.731  64.743  1.00  0.00     0.085 H 
HETATM   35  C   LIG     1     -11.134  11.534  65.907  1.00  0.00    -0.060 A 
HETATM   36  C   LIG     1     -10.358  11.691  67.059  1.00  0.00    -0.075 A 
HETATM   37  H   LIG     1     -11.529  10.550  65.659  1.00  0.00     0.085 H 
HETATM   38  H   LIG     1     -10.130  10.806  67.641  1.00  0.00     0.084 H 
BRANCH  33  39
HETATM   39  S   LIG     1     -12.338  12.396  63.613  1.00  0.00     0.239 S 
HETATM   40  O   LIG     1     -12.293  13.608  62.833  1.00  0.00    -0.206 OA
HETATM   41  O   LIG     1     -13.589  11.761  63.977  1.00  0.00    -0.206 OA
BRANCH  39  42
HETATM   42  N   LIG     1     -11.407  11.250  62.803  1.00  0.00    -0.225 NA
HETATM   43  H   LIG     1     -10.908  11.692  62.031  1.00  0.00     0.136 HD
HETATM   44  H   LIG     1     -10.818  10.662  63.398  1.00  0.00     0.136 HD
ENDBRANCH  39  42
ENDBRANCH  33  39
ENDBRANCH  26  29
ENDBRANCH  22  26
ENDBRANCH  13  16
ENDBRANCH  10  12
BRANCH  10  45
HETATM   45  S   LIG     1      -2.090  17.246  69.248  1.00  0.00    -0.163 SA
HETATM   46  H   LIG     1      -2.548  16.602  68.164  1.00  0.00     0.102 HD
ENDBRANCH  10  45
ENDBRANCH   1  10
BRANCH   3  47
HETATM   47  C   LIG     1      -5.288  20.162  65.736  1.00  0.00    -0.025 C 
HETATM   48  H   LIG     1      -4.245  20.245  65.402  1.00  0.00     0.042 H 
HETATM   49  H   LIG     1      -5.731  21.145  65.526  1.00  0.00     0.042 H 
BRANCH  47  50
HETATM   50  C   LIG     1      -5.982  19.096  64.890  1.00  0.00    -0.001 C 
HETATM   51  H   LIG     1      -5.462  18.133  64.945  1.00  0.00     0.064 H 
HETATM   52  H   LIG     1      -6.024  19.391  63.835  1.00  0.00     0.064 H 
BRANCH  50  53
HETATM   53  N   LIG     1      -7.344  18.898  65.353  1.00  0.00    -0.360 N 
HETATM   54  C   LIG     1      -7.751  17.741  65.976  1.00  0.00     0.221 C 
HETATM   55  O   LIG     1      -6.991  16.803  66.191  1.00  0.00    -0.273 OA
HETATM   56  H   LIG     1      -8.013  19.650  65.245  1.00  0.00     0.162 HD
BRANCH  54  57
HETATM   57  C   LIG     1      -9.225  17.766  66.401  1.00  0.00     0.024 C 
HETATM   58  C   LIG     1      -9.423  17.303  67.851  1.00  0.00    -0.051 C 
HETATM   59  C   LIG     1      -8.894  18.325  68.859  1.00  0.00    -0.040 C 
HETATM   60  H   LIG     1      -8.938  16.339  68.036  1.00  0.00     0.034 H 
HETATM   61  H   LIG     1     -10.494  17.142  68.027  1.00  0.00     0.034 H 
HETATM   62  C   LIG     1      -9.491  19.714  68.645  1.00  0.00     0.035 C 
HETATM   63  H   LIG     1      -7.801  18.377  68.782  1.00  0.00     0.036 H 
HETATM   64  H   LIG     1      -9.132  17.969  69.869  1.00  0.00     0.036 H 
HETATM   65  C   LIG     1      -9.383  20.188  67.197  1.00  0.00    -0.040 C 
HETATM   66  H   LIG     1      -8.987  20.427  69.308  1.00  0.00     0.082 H 
HETATM   67  C   LIG     1      -9.870  19.141  66.191  1.00  0.00    -0.051 C 
HETATM   68  H   LIG     1      -8.342  20.449  66.982  1.00  0.00     0.036 H 
HETATM   69  H   LIG     1      -9.976  21.100  67.056  1.00  0.00     0.036 H 
HETATM   70  H   LIG     1      -9.683  19.500  65.172  1.00  0.00     0.034 H 
HETATM   71  H   LIG     1     -10.959  19.033  66.289  1.00  0.00     0.034 H 
HETATM   72  H   LIG     1      -9.734  17.054  65.736  1.00  0.00     0.054 H 
BRANCH  62  73
HETATM   73  O   LIG     1     -10.865  19.677  69.022  1.00  0.00    -0.396 OA
HETATM   74  H   LIG     1     -11.193  20.594  68.993  1.00  0.00     0.210 HD
ENDBRANCH  62  73
ENDBRANCH  54  57
ENDBRANCH  50  53
ENDBRANCH  47  50
ENDBRANCH   3  47
TORSDOF 13
ENDMDL
