MODEL 1
REMARK minimizedAffinity -7.963521
REMARK minimizedRMSD -1
REMARK  14 active torsions:
REMARK  status: ('A' for Active; 'I' for Inactive)
REMARK    1  A    between atoms: N_1  and  S_2 
REMARK    2  A    between atoms: S_2  and  C_5 
REMARK    3  A    between atoms: C_8  and  C_9 
REMARK    4  A    between atoms: C_9  and  C_10 
REMARK    5  A    between atoms: C_14  and  N_15 
REMARK       I    between atoms: N_15  and  C_16 
REMARK    6  A    between atoms: C_16  and  C_18 
REMARK    7  A    between atoms: C_18  and  C_19 
REMARK    8  A    between atoms: C_18  and  C_21 
REMARK    9  A    between atoms: C_19  and  S_20 
REMARK   10  A    between atoms: C_23  and  C_24 
REMARK   11  A    between atoms: C_24  and  C_25 
REMARK   12  A    between atoms: C_25  and  N_26 
REMARK       I    between atoms: N_26  and  C_27 
REMARK   13  A    between atoms: C_27  and  C_29 
REMARK   14  A    between atoms: C_32  and  O_33 
ROOT
HETATM    1  C   LIG     1     -12.451  14.392  70.670  1.00  0.00     0.058 C 
HETATM    2  H   LIG     1     -13.446  14.754  70.362  1.00  0.00     0.063 H 
ENDROOT
BRANCH   1   3
HETATM    3  C   LIG     1     -12.747  13.029  71.312  1.00  0.00     0.231 C 
HETATM    4  N   LIG     1     -12.072  11.957  70.739  1.00  0.00    -0.327 N 
HETATM    5  H   LIG     1     -11.203  12.155  70.260  1.00  0.00     0.169 HD
HETATM    6  O   LIG     1     -13.549  12.915  72.238  1.00  0.00    -0.272 OA
BRANCH   4   7
HETATM    7  C   LIG     1     -12.300  10.615  71.113  1.00  0.00     0.035 A 
HETATM    8  C   LIG     1     -13.535  10.276  71.660  1.00  0.00    -0.057 A 
HETATM    9  C   LIG     1     -13.824   8.947  71.978  1.00  0.00    -0.080 A 
HETATM   10  H   LIG     1     -14.306  11.029  71.790  1.00  0.00     0.086 H 
HETATM   11  C   LIG     1     -12.846   7.964  71.833  1.00  0.00    -0.076 A 
HETATM   12  H   LIG     1     -14.811   8.672  72.340  1.00  0.00     0.083 H 
HETATM   13  C   LIG     1     -11.570   8.300  71.363  1.00  0.00    -0.052 A 
HETATM   14  H   LIG     1     -13.079   6.936  72.104  1.00  0.00     0.084 H 
HETATM   15  C   LIG     1     -11.321   9.626  70.973  1.00  0.00    -0.051 A 
HETATM   16  H   LIG     1     -10.336   9.887  70.589  1.00  0.00     0.087 H 
BRANCH  13  17
HETATM   17  C   LIG     1     -10.474   7.259  71.274  1.00  0.00    -0.017 C 
HETATM   18  H   LIG     1      -9.524   7.741  71.538  1.00  0.00     0.047 H 
HETATM   19  H   LIG     1     -10.628   6.476  72.028  1.00  0.00     0.047 H 
BRANCH  17  20
HETATM   20  C   LIG     1     -10.370   6.584  69.921  1.00  0.00    -0.054 A 
HETATM   21  C   LIG     1     -11.244   6.943  68.885  1.00  0.00    -0.075 A 
HETATM   22  C   LIG     1     -11.155   6.328  67.634  1.00  0.00    -0.060 A 
HETATM   23  H   LIG     1     -12.003   7.707  69.040  1.00  0.00     0.084 H 
HETATM   24  C   LIG     1     -10.185   5.343  67.413  1.00  0.00     0.074 A 
HETATM   25  H   LIG     1     -11.834   6.627  66.840  1.00  0.00     0.085 H 
HETATM   26  C   LIG     1      -9.298   4.984  68.427  1.00  0.00    -0.060 A 
HETATM   27  C   LIG     1      -9.391   5.605  69.677  1.00  0.00    -0.075 A 
HETATM   28  H   LIG     1      -8.533   4.229  68.255  1.00  0.00     0.085 H 
HETATM   29  H   LIG     1      -8.697   5.321  70.467  1.00  0.00     0.084 H 
BRANCH  24  30
HETATM   30  S   LIG     1     -10.080   4.594  65.814  1.00  0.00     0.239 S 
HETATM   31  O   LIG     1      -9.778   3.186  65.988  1.00  0.00    -0.206 OA
HETATM   32  O   LIG     1      -9.330   5.441  64.931  1.00  0.00    -0.206 OA
BRANCH  30  33
HETATM   33  N   LIG     1     -11.662   4.656  65.252  1.00  0.00    -0.225 NA
HETATM   34  H   LIG     1     -12.005   3.707  65.098  1.00  0.00     0.136 HD
HETATM   35  H   LIG     1     -11.689   5.232  64.408  1.00  0.00     0.136 HD
ENDBRANCH  30  33
ENDBRANCH  24  30
ENDBRANCH  17  20
ENDBRANCH  13  17
ENDBRANCH   4   7
ENDBRANCH   1   3
BRANCH   1  36
HETATM   36  C   LIG     1     -11.955  15.432  71.705  1.00  0.00    -0.011 C 
HETATM   37  H   LIG     1     -11.796  16.392  71.200  1.00  0.00     0.050 H 
HETATM   38  H   LIG     1     -10.988  15.116  72.108  1.00  0.00     0.050 H 
BRANCH  36  39
HETATM   39  S   LIG     1     -13.030  15.788  73.142  1.00  0.00    -0.181 SA
HETATM   40  H   LIG     1     -14.091  16.206  72.423  1.00  0.00     0.101 HD
ENDBRANCH  36  39
ENDBRANCH   1  36
BRANCH   1  41
HETATM   41  C   LIG     1     -11.599  14.320  69.416  1.00  0.00    -0.026 A 
HETATM   42  C   LIG     1     -10.205  14.437  69.444  1.00  0.00    -0.067 A 
HETATM   43  C   LIG     1      -9.462  14.336  68.263  1.00  0.00    -0.038 A 
HETATM   44  H   LIG     1      -9.689  14.609  70.387  1.00  0.00     0.085 H 
HETATM   45  C   LIG     1     -10.161  14.127  67.082  1.00  0.00     0.008 A 
HETATM   46  N   LIG     1     -11.500  13.994  67.013  1.00  0.00    -0.272 NA
HETATM   47  H   LIG     1      -9.647  14.046  66.127  1.00  0.00     0.115 H 
HETATM   48  C   LIG     1     -12.186  14.103  68.170  1.00  0.00     0.009 A 
HETATM   49  H   LIG     1     -13.262  13.991  68.048  1.00  0.00     0.115 H 
BRANCH  43  50
HETATM   50  C   LIG     1      -7.960  14.457  68.258  1.00  0.00    -0.025 C 
HETATM   51  H   LIG     1      -7.654  15.363  68.795  1.00  0.00     0.042 H 
HETATM   52  H   LIG     1      -7.637  14.582  67.218  1.00  0.00     0.042 H 
BRANCH  50  53
HETATM   53  C   LIG     1      -7.243  13.245  68.867  1.00  0.00    -0.001 C 
HETATM   54  H   LIG     1      -6.985  13.459  69.909  1.00  0.00     0.064 H 
HETATM   55  H   LIG     1      -6.308  13.028  68.339  1.00  0.00     0.064 H 
BRANCH  53  56
HETATM   56  N   LIG     1      -8.043  12.036  68.810  1.00  0.00    -0.360 N 
HETATM   57  C   LIG     1      -7.467  10.794  68.636  1.00  0.00     0.221 C 
HETATM   58  O   LIG     1      -6.253  10.623  68.618  1.00  0.00    -0.273 OA
HETATM   59  H   LIG     1      -9.038  12.138  68.655  1.00  0.00     0.162 HD
BRANCH  57  60
HETATM   60  C   LIG     1      -8.476   9.662  68.440  1.00  0.00     0.024 C 
HETATM   61  C   LIG     1      -9.755  10.142  67.734  1.00  0.00    -0.051 C 
HETATM   62  C   LIG     1      -9.561  10.374  66.233  1.00  0.00    -0.040 C 
HETATM   63  H   LIG     1     -10.124  11.068  68.193  1.00  0.00     0.034 H 
HETATM   64  H   LIG     1     -10.545   9.394  67.877  1.00  0.00     0.034 H 
HETATM   65  C   LIG     1      -8.951   9.166  65.528  1.00  0.00     0.035 C 
HETATM   66  H   LIG     1      -8.919  11.247  66.075  1.00  0.00     0.036 H 
HETATM   67  H   LIG     1     -10.537  10.609  65.790  1.00  0.00     0.036 H 
HETATM   68  C   LIG     1      -7.672   8.690  66.213  1.00  0.00    -0.040 C 
HETATM   69  H   LIG     1      -8.723   9.436  64.491  1.00  0.00     0.082 H 
HETATM   70  C   LIG     1      -7.850   8.467  67.713  1.00  0.00    -0.051 C 
HETATM   71  H   LIG     1      -6.877   9.427  66.052  1.00  0.00     0.036 H 
HETATM   72  H   LIG     1      -7.339   7.747  65.763  1.00  0.00     0.036 H 
HETATM   73  H   LIG     1      -6.873   8.207  68.136  1.00  0.00     0.034 H 
HETATM   74  H   LIG     1      -8.491   7.595  67.875  1.00  0.00     0.034 H 
HETATM   75  H   LIG     1      -8.762   9.341  69.453  1.00  0.00     0.054 H 
BRANCH  65  76
HETATM   76  O   LIG     1      -9.914   8.116  65.464  1.00  0.00    -0.396 OA
HETATM   77  H   LIG     1      -9.846   7.568  66.261  1.00  0.00     0.210 HD
ENDBRANCH  65  76
ENDBRANCH  57  60
ENDBRANCH  53  56
ENDBRANCH  50  53
ENDBRANCH  43  50
ENDBRANCH   1  41
TORSDOF 14
ENDMDL
MODEL 2
REMARK minimizedAffinity -7.83020687
REMARK minimizedRMSD -1
REMARK  14 active torsions:
REMARK  status: ('A' for Active; 'I' for Inactive)
REMARK    1  A    between atoms: N_1  and  S_2 
REMARK    2  A    between atoms: S_2  and  C_5 
REMARK    3  A    between atoms: C_8  and  C_9 
REMARK    4  A    between atoms: C_9  and  C_10 
REMARK    5  A    between atoms: C_14  and  N_15 
REMARK       I    between atoms: N_15  and  C_16 
REMARK    6  A    between atoms: C_16  and  C_18 
REMARK    7  A    between atoms: C_18  and  C_19 
REMARK    8  A    between atoms: C_18  and  C_21 
REMARK    9  A    between atoms: C_19  and  S_20 
REMARK   10  A    between atoms: C_23  and  C_24 
REMARK   11  A    between atoms: C_24  and  C_25 
REMARK   12  A    between atoms: C_25  and  N_26 
REMARK       I    between atoms: N_26  and  C_27 
REMARK   13  A    between atoms: C_27  and  C_29 
REMARK   14  A    between atoms: C_32  and  O_33 
ROOT
HETATM    1  C   LIG     1     -12.105  14.572  69.816  1.00  0.00     0.058 C 
HETATM    2  H   LIG     1     -13.095  14.997  69.583  1.00  0.00     0.063 H 
ENDROOT
BRANCH   1   3
HETATM    3  C   LIG     1     -12.436  13.294  70.600  1.00  0.00     0.231 C 
HETATM    4  N   LIG     1     -11.689  12.179  70.239  1.00  0.00    -0.327 N 
HETATM    5  H   LIG     1     -10.780  12.341  69.822  1.00  0.00     0.169 HD
HETATM    6  O   LIG     1     -13.323  13.275  71.452  1.00  0.00    -0.272 OA
BRANCH   4   7
HETATM    7  C   LIG     1     -11.927  10.890  70.762  1.00  0.00     0.035 A 
HETATM    8  C   LIG     1     -13.128  10.652  71.426  1.00  0.00    -0.057 A 
HETATM    9  C   LIG     1     -13.430   9.371  71.897  1.00  0.00    -0.080 A 
HETATM   10  H   LIG     1     -13.865  11.440  71.533  1.00  0.00     0.086 H 
HETATM   11  C   LIG     1     -12.494   8.345  71.784  1.00  0.00    -0.076 A 
HETATM   12  H   LIG     1     -14.395   9.169  72.353  1.00  0.00     0.083 H 
HETATM   13  C   LIG     1     -11.248   8.587  71.194  1.00  0.00    -0.052 A 
HETATM   14  H   LIG     1     -12.736   7.357  72.173  1.00  0.00     0.084 H 
HETATM   15  C   LIG     1     -10.989   9.858  70.655  1.00  0.00    -0.051 A 
HETATM   16  H   LIG     1     -10.028  10.044  70.178  1.00  0.00     0.087 H 
BRANCH  13  17
HETATM   17  C   LIG     1     -10.191   7.503  71.134  1.00  0.00    -0.017 C 
HETATM   18  H   LIG     1      -9.224   7.956  71.385  1.00  0.00     0.047 H 
HETATM   19  H   LIG     1     -10.374   6.748  71.910  1.00  0.00     0.047 H 
BRANCH  17  20
HETATM   20  C   LIG     1     -10.114   6.787  69.801  1.00  0.00    -0.054 A 
HETATM   21  C   LIG     1     -11.238   6.731  68.964  1.00  0.00    -0.075 A 
HETATM   22  C   LIG     1     -11.176   6.074  67.733  1.00  0.00    -0.060 A 
HETATM   23  H   LIG     1     -12.174   7.199  69.262  1.00  0.00     0.084 H 
HETATM   24  C   LIG     1      -9.982   5.465  67.331  1.00  0.00     0.074 A 
HETATM   25  H   LIG     1     -12.054   6.051  67.093  1.00  0.00     0.085 H 
HETATM   26  C   LIG     1      -8.850   5.523  68.143  1.00  0.00    -0.060 A 
HETATM   27  C   LIG     1      -8.917   6.184  69.374  1.00  0.00    -0.075 A 
HETATM   28  H   LIG     1      -7.914   5.064  67.828  1.00  0.00     0.085 H 
HETATM   29  H   LIG     1      -8.031   6.227  70.006  1.00  0.00     0.084 H 
BRANCH  24  30
HETATM   30  S   LIG     1      -9.923   4.657  65.758  1.00  0.00     0.239 S 
HETATM   31  O   LIG     1      -9.612   3.258  65.974  1.00  0.00    -0.206 OA
HETATM   32  O   LIG     1      -9.204   5.473  64.821  1.00  0.00    -0.206 OA
BRANCH  30  33
HETATM   33  N   LIG     1     -11.522   4.697  65.244  1.00  0.00    -0.225 NA
HETATM   34  H   LIG     1     -11.867   3.742  65.135  1.00  0.00     0.136 HD
HETATM   35  H   LIG     1     -11.577   5.241  64.380  1.00  0.00     0.136 HD
ENDBRANCH  30  33
ENDBRANCH  24  30
ENDBRANCH  17  20
ENDBRANCH  13  17
ENDBRANCH   4   7
ENDBRANCH   1   3
BRANCH   1  36
HETATM   36  C   LIG     1     -11.415  15.640  70.700  1.00  0.00    -0.011 C 
HETATM   37  H   LIG     1     -11.415  16.599  70.170  1.00  0.00     0.050 H 
HETATM   38  H   LIG     1     -10.369  15.362  70.862  1.00  0.00     0.050 H 
BRANCH  36  39
HETATM   39  S   LIG     1     -12.129  15.974  72.351  1.00  0.00    -0.181 SA
HETATM   40  H   LIG     1     -13.345  16.347  71.906  1.00  0.00     0.101 HD
ENDBRANCH  36  39
ENDBRANCH   1  36
BRANCH   1  41
HETATM   41  C   LIG     1     -11.405  14.328  68.491  1.00  0.00    -0.026 A 
HETATM   42  C   LIG     1     -12.101  14.005  67.320  1.00  0.00    -0.067 A 
HETATM   43  C   LIG     1     -11.413  13.816  66.118  1.00  0.00    -0.038 A 
HETATM   44  H   LIG     1     -13.184  13.900  67.339  1.00  0.00     0.085 H 
HETATM   45  C   LIG     1     -10.030  13.950  66.142  1.00  0.00     0.008 A 
HETATM   46  N   LIG     1      -9.324  14.273  67.242  1.00  0.00    -0.272 NA
HETATM   47  H   LIG     1      -9.433  13.809  65.244  1.00  0.00     0.115 H 
HETATM   48  C   LIG     1     -10.020  14.443  68.387  1.00  0.00     0.009 A 
HETATM   49  H   LIG     1      -9.395  14.698  69.240  1.00  0.00     0.115 H 
BRANCH  43  50
HETATM   50  C   LIG     1     -12.130  13.469  64.839  1.00  0.00    -0.025 C 
HETATM   51  H   LIG     1     -12.114  14.327  64.155  1.00  0.00     0.042 H 
HETATM   52  H   LIG     1     -13.183  13.282  65.084  1.00  0.00     0.042 H 
BRANCH  50  53
HETATM   53  C   LIG     1     -11.553  12.242  64.122  1.00  0.00    -0.001 C 
HETATM   54  H   LIG     1     -10.727  12.553  63.474  1.00  0.00     0.064 H 
HETATM   55  H   LIG     1     -12.304  11.763  63.484  1.00  0.00     0.064 H 
BRANCH  53  56
HETATM   56  N   LIG     1     -11.082  11.227  65.045  1.00  0.00    -0.360 N 
HETATM   57  C   LIG     1      -9.970  10.459  64.771  1.00  0.00     0.221 C 
HETATM   58  O   LIG     1      -9.258  10.649  63.790  1.00  0.00    -0.273 OA
HETATM   59  H   LIG     1     -11.716  10.923  65.773  1.00  0.00     0.162 HD
BRANCH  57  60
HETATM   60  C   LIG     1      -9.723   9.337  65.781  1.00  0.00     0.024 C 
HETATM   61  C   LIG     1      -8.254   8.883  65.794  1.00  0.00    -0.051 C 
HETATM   62  C   LIG     1      -7.326   9.872  66.505  1.00  0.00    -0.040 C 
HETATM   63  H   LIG     1      -7.890   8.725  64.771  1.00  0.00     0.034 H 
HETATM   64  H   LIG     1      -8.185   7.910  66.297  1.00  0.00     0.034 H 
HETATM   65  C   LIG     1      -7.815  10.231  67.905  1.00  0.00     0.035 C 
HETATM   66  H   LIG     1      -7.236  10.787  65.908  1.00  0.00     0.036 H 
HETATM   67  H   LIG     1      -6.326   9.428  66.564  1.00  0.00     0.036 H 
HETATM   68  C   LIG     1      -9.269  10.697  67.900  1.00  0.00    -0.040 C 
HETATM   69  H   LIG     1      -7.184  11.030  68.310  1.00  0.00     0.082 H 
HETATM   70  C   LIG     1     -10.203   9.724  67.183  1.00  0.00    -0.051 C 
HETATM   71  H   LIG     1      -9.336  11.679  67.417  1.00  0.00     0.036 H 
HETATM   72  H   LIG     1      -9.625  10.816  68.932  1.00  0.00     0.036 H 
HETATM   73  H   LIG     1     -11.203  10.170  67.156  1.00  0.00     0.034 H 
HETATM   74  H   LIG     1     -10.295   8.809  67.777  1.00  0.00     0.034 H 
HETATM   75  H   LIG     1     -10.325   8.485  65.430  1.00  0.00     0.054 H 
BRANCH  65  76
HETATM   76  O   LIG     1      -7.644   9.111  68.771  1.00  0.00    -0.396 OA
HETATM   77  H   LIG     1      -8.437   8.553  68.737  1.00  0.00     0.210 HD
ENDBRANCH  65  76
ENDBRANCH  57  60
ENDBRANCH  53  56
ENDBRANCH  50  53
ENDBRANCH  43  50
ENDBRANCH   1  41
TORSDOF 14
ENDMDL
MODEL 3
REMARK minimizedAffinity -7.40854931
REMARK minimizedRMSD -1
REMARK  14 active torsions:
REMARK  status: ('A' for Active; 'I' for Inactive)
REMARK    1  A    between atoms: N_1  and  S_2 
REMARK    2  A    between atoms: S_2  and  C_5 
REMARK    3  A    between atoms: C_8  and  C_9 
REMARK    4  A    between atoms: C_9  and  C_10 
REMARK    5  A    between atoms: C_14  and  N_15 
REMARK       I    between atoms: N_15  and  C_16 
REMARK    6  A    between atoms: C_16  and  C_18 
REMARK    7  A    between atoms: C_18  and  C_19 
REMARK    8  A    between atoms: C_18  and  C_21 
REMARK    9  A    between atoms: C_19  and  S_20 
REMARK   10  A    between atoms: C_23  and  C_24 
REMARK   11  A    between atoms: C_24  and  C_25 
REMARK   12  A    between atoms: C_25  and  N_26 
REMARK       I    between atoms: N_26  and  C_27 
REMARK   13  A    between atoms: C_27  and  C_29 
REMARK   14  A    between atoms: C_32  and  O_33 
ROOT
HETATM    1  C   LIG     1     -12.003  13.811  69.330  1.00  0.00     0.058 C 
HETATM    2  H   LIG     1     -12.951  14.125  68.863  1.00  0.00     0.063 H 
ENDROOT
BRANCH   1   3
HETATM    3  C   LIG     1     -12.155  12.289  69.464  1.00  0.00     0.231 C 
HETATM    4  N   LIG     1     -12.311  11.831  70.767  1.00  0.00    -0.327 N 
HETATM    5  H   LIG     1     -12.695  12.477  71.445  1.00  0.00     0.169 HD
HETATM    6  O   LIG     1     -12.103  11.549  68.482  1.00  0.00    -0.272 OA
BRANCH   4   7
HETATM    7  C   LIG     1     -12.349  10.460  71.102  1.00  0.00     0.035 A 
HETATM    8  C   LIG     1     -13.476   9.965  71.755  1.00  0.00    -0.057 A 
HETATM    9  C   LIG     1     -13.581   8.601  72.041  1.00  0.00    -0.080 A 
HETATM   10  H   LIG     1     -14.308  10.619  71.993  1.00  0.00     0.086 H 
HETATM   11  C   LIG     1     -12.521   7.743  71.756  1.00  0.00    -0.076 A 
HETATM   12  H   LIG     1     -14.488   8.204  72.487  1.00  0.00     0.083 H 
HETATM   13  C   LIG     1     -11.346   8.237  71.177  1.00  0.00    -0.052 A 
HETATM   14  H   LIG     1     -12.609   6.686  72.004  1.00  0.00     0.084 H 
HETATM   15  C   LIG     1     -11.287   9.595  70.823  1.00  0.00    -0.051 A 
HETATM   16  H   LIG     1     -10.382   9.979  70.354  1.00  0.00     0.087 H 
BRANCH  13  17
HETATM   17  C   LIG     1     -10.157   7.332  70.934  1.00  0.00    -0.017 C 
HETATM   18  H   LIG     1      -9.245   7.935  71.024  1.00  0.00     0.047 H 
HETATM   19  H   LIG     1     -10.087   6.572  71.723  1.00  0.00     0.047 H 
BRANCH  17  20
HETATM   20  C   LIG     1     -10.189   6.613  69.600  1.00  0.00    -0.054 A 
HETATM   21  C   LIG     1     -10.721   7.249  68.469  1.00  0.00    -0.075 A 
HETATM   22  C   LIG     1     -10.753   6.595  67.235  1.00  0.00    -0.060 A 
HETATM   23  H   LIG     1     -11.114   8.261  68.536  1.00  0.00     0.084 H 
HETATM   24  C   LIG     1     -10.253   5.293  67.127  1.00  0.00     0.074 A 
HETATM   25  H   LIG     1     -11.159   7.108  66.367  1.00  0.00     0.085 H 
HETATM   26  C   LIG     1      -9.707   4.650  68.237  1.00  0.00    -0.060 A 
HETATM   27  C   LIG     1      -9.675   5.310  69.470  1.00  0.00    -0.075 A 
HETATM   28  H   LIG     1      -9.303   3.642  68.155  1.00  0.00     0.085 H 
HETATM   29  H   LIG     1      -9.249   4.805  70.335  1.00  0.00     0.084 H 
BRANCH  24  30
HETATM   30  S   LIG     1     -10.287   4.494  65.549  1.00  0.00     0.239 S 
HETATM   31  O   LIG     1     -11.637   4.576  65.024  1.00  0.00    -0.206 OA
HETATM   32  O   LIG     1      -9.557   3.260  65.615  1.00  0.00    -0.206 OA
BRANCH  30  33
HETATM   33  N   LIG     1      -9.358   5.507  64.582  1.00  0.00    -0.225 NA
HETATM   34  H   LIG     1      -9.935   5.875  63.824  1.00  0.00     0.136 HD
HETATM   35  H   LIG     1      -8.544   4.987  64.247  1.00  0.00     0.136 HD
ENDBRANCH  30  33
ENDBRANCH  24  30
ENDBRANCH  17  20
ENDBRANCH  13  17
ENDBRANCH   4   7
ENDBRANCH   1   3
BRANCH   1  36
HETATM   36  C   LIG     1     -11.984  14.521  70.704  1.00  0.00    -0.011 C 
HETATM   37  H   LIG     1     -11.301  15.377  70.656  1.00  0.00     0.050 H 
HETATM   38  H   LIG     1     -11.592  13.839  71.465  1.00  0.00     0.050 H 
BRANCH  36  39
HETATM   39  S   LIG     1     -13.566  15.174  71.352  1.00  0.00    -0.181 SA
HETATM   40  H   LIG     1     -13.809  16.004  70.319  1.00  0.00     0.101 HD
ENDBRANCH  36  39
ENDBRANCH   1  36
BRANCH   1  41
HETATM   41  C   LIG     1     -10.887  14.246  68.397  1.00  0.00    -0.026 A 
HETATM   42  C   LIG     1      -9.549  13.892  68.606  1.00  0.00    -0.067 A 
HETATM   43  C   LIG     1      -8.561  14.296  67.703  1.00  0.00    -0.038 A 
HETATM   44  H   LIG     1      -9.270  13.299  69.475  1.00  0.00     0.085 H 
HETATM   45  C   LIG     1      -8.961  15.060  66.614  1.00  0.00     0.008 A 
HETATM   46  N   LIG     1     -10.238  15.410  66.368  1.00  0.00    -0.272 NA
HETATM   47  H   LIG     1      -8.243  15.413  65.878  1.00  0.00     0.115 H 
HETATM   48  C   LIG     1     -11.166  15.009  67.263  1.00  0.00     0.009 A 
HETATM   49  H   LIG     1     -12.176  15.326  67.013  1.00  0.00     0.115 H 
BRANCH  43  50
HETATM   50  C   LIG     1      -7.112  13.931  67.897  1.00  0.00    -0.025 C 
HETATM   51  H   LIG     1      -6.847  13.999  68.959  1.00  0.00     0.042 H 
HETATM   52  H   LIG     1      -6.504  14.678  67.371  1.00  0.00     0.042 H 
BRANCH  50  53
HETATM   53  C   LIG     1      -6.755  12.532  67.377  1.00  0.00    -0.001 C 
HETATM   54  H   LIG     1      -6.216  11.981  68.155  1.00  0.00     0.064 H 
HETATM   55  H   LIG     1      -6.095  12.588  66.504  1.00  0.00     0.064 H 
BRANCH  53  56
HETATM   56  N   LIG     1      -7.922  11.773  66.971  1.00  0.00    -0.360 N 
HETATM   57  C   LIG     1      -7.845  10.789  66.007  1.00  0.00     0.221 C 
HETATM   58  O   LIG     1      -6.784  10.428  65.509  1.00  0.00    -0.273 OA
HETATM   59  H   LIG     1      -8.831  12.137  67.224  1.00  0.00     0.162 HD
BRANCH  57  60
HETATM   60  C   LIG     1      -9.201  10.211  65.597  1.00  0.00     0.024 C 
HETATM   61  C   LIG     1     -10.331  11.246  65.720  1.00  0.00    -0.051 C 
HETATM   62  C   LIG     1     -10.316  12.288  64.599  1.00  0.00    -0.040 C 
HETATM   63  H   LIG     1     -10.278  11.762  66.687  1.00  0.00     0.034 H 
HETATM   64  H   LIG     1     -11.297  10.725  65.704  1.00  0.00     0.034 H 
HETATM   65  C   LIG     1     -10.284  11.655  63.211  1.00  0.00     0.035 C 
HETATM   66  H   LIG     1      -9.446  12.944  64.717  1.00  0.00     0.036 H 
HETATM   67  H   LIG     1     -11.208  12.918  64.699  1.00  0.00     0.036 H 
HETATM   68  C   LIG     1      -9.155  10.636  63.074  1.00  0.00    -0.040 C 
HETATM   69  H   LIG     1     -10.148  12.443  62.462  1.00  0.00     0.082 H 
HETATM   70  C   LIG     1      -9.153   9.598  64.194  1.00  0.00    -0.051 C 
HETATM   71  H   LIG     1      -8.191  11.158  63.068  1.00  0.00     0.036 H 
HETATM   72  H   LIG     1      -9.245  10.108  62.117  1.00  0.00     0.036 H 
HETATM   73  H   LIG     1      -8.271   8.960  64.065  1.00  0.00     0.034 H 
HETATM   74  H   LIG     1     -10.020   8.941  64.079  1.00  0.00     0.034 H 
HETATM   75  H   LIG     1      -9.412   9.409  66.320  1.00  0.00     0.054 H 
BRANCH  65  76
HETATM   76  O   LIG     1     -11.547  11.054  62.933  1.00  0.00    -0.396 OA
HETATM   77  H   LIG     1     -11.544  10.137  63.250  1.00  0.00     0.210 HD
ENDBRANCH  65  76
ENDBRANCH  57  60
ENDBRANCH  53  56
ENDBRANCH  50  53
ENDBRANCH  43  50
ENDBRANCH   1  41
TORSDOF 14
ENDMDL
MODEL 4
REMARK minimizedAffinity -6.50455523
REMARK minimizedRMSD -1
REMARK  14 active torsions:
REMARK  status: ('A' for Active; 'I' for Inactive)
REMARK    1  A    between atoms: N_1  and  S_2 
REMARK    2  A    between atoms: S_2  and  C_5 
REMARK    3  A    between atoms: C_8  and  C_9 
REMARK    4  A    between atoms: C_9  and  C_10 
REMARK    5  A    between atoms: C_14  and  N_15 
REMARK       I    between atoms: N_15  and  C_16 
REMARK    6  A    between atoms: C_16  and  C_18 
REMARK    7  A    between atoms: C_18  and  C_19 
REMARK    8  A    between atoms: C_18  and  C_21 
REMARK    9  A    between atoms: C_19  and  S_20 
REMARK   10  A    between atoms: C_23  and  C_24 
REMARK   11  A    between atoms: C_24  and  C_25 
REMARK   12  A    between atoms: C_25  and  N_26 
REMARK       I    between atoms: N_26  and  C_27 
REMARK   13  A    between atoms: C_27  and  C_29 
REMARK   14  A    between atoms: C_32  and  O_33 
ROOT
HETATM    1  C   LIG     1     -12.498  14.384  69.899  1.00  0.00     0.058 C 
HETATM    2  H   LIG     1     -13.258  14.147  69.137  1.00  0.00     0.063 H 
ENDROOT
BRANCH   1   3
HETATM    3  C   LIG     1     -12.346  13.070  70.677  1.00  0.00     0.231 C 
HETATM    4  N   LIG     1     -12.176  11.939  69.886  1.00  0.00    -0.327 N 
HETATM    5  H   LIG     1     -11.787  12.072  68.961  1.00  0.00     0.169 HD
HETATM    6  O   LIG     1     -12.407  13.040  71.905  1.00  0.00    -0.272 OA
BRANCH   4   7
HETATM    7  C   LIG     1     -12.135  10.630  70.411  1.00  0.00     0.035 A 
HETATM    8  C   LIG     1     -13.178  10.209  71.233  1.00  0.00    -0.057 A 
HETATM    9  C   LIG     1     -13.209   8.898  71.716  1.00  0.00    -0.080 A 
HETATM   10  H   LIG     1     -14.006  10.873  71.459  1.00  0.00     0.086 H 
HETATM   11  C   LIG     1     -12.151   8.030  71.451  1.00  0.00    -0.076 A 
HETATM   12  H   LIG     1     -14.056   8.549  72.300  1.00  0.00     0.083 H 
HETATM   13  C   LIG     1     -11.054   8.462  70.696  1.00  0.00    -0.052 A 
HETATM   14  H   LIG     1     -12.180   7.017  71.851  1.00  0.00     0.084 H 
HETATM   15  C   LIG     1     -11.074   9.756  70.152  1.00  0.00    -0.051 A 
HETATM   16  H   LIG     1     -10.232  10.089  69.548  1.00  0.00     0.087 H 
BRANCH  13  17
HETATM   17  C   LIG     1      -9.862   7.556  70.466  1.00  0.00    -0.017 C 
HETATM   18  H   LIG     1      -8.956   8.174  70.482  1.00  0.00     0.047 H 
HETATM   19  H   LIG     1      -9.752   6.850  71.299  1.00  0.00     0.047 H 
BRANCH  17  20
HETATM   20  C   LIG     1      -9.935   6.751  69.184  1.00  0.00    -0.054 A 
HETATM   21  C   LIG     1      -8.916   5.842  68.864  1.00  0.00    -0.075 A 
HETATM   22  C   LIG     1      -8.974   5.095  67.685  1.00  0.00    -0.060 A 
HETATM   23  H   LIG     1      -8.067   5.705  69.531  1.00  0.00     0.084 H 
HETATM   24  C   LIG     1     -10.058   5.256  66.815  1.00  0.00     0.074 A 
HETATM   25  H   LIG     1      -8.181   4.387  67.460  1.00  0.00     0.085 H 
HETATM   26  C   LIG     1     -11.087   6.144  67.123  1.00  0.00    -0.060 A 
HETATM   27  C   LIG     1     -11.024   6.888  68.306  1.00  0.00    -0.075 A 
HETATM   28  H   LIG     1     -11.940   6.263  66.456  1.00  0.00     0.085 H 
HETATM   29  H   LIG     1     -11.830   7.582  68.543  1.00  0.00     0.084 H 
BRANCH  24  30
HETATM   30  S   LIG     1     -10.118   4.283  65.338  1.00  0.00     0.239 S 
HETATM   31  O   LIG     1      -8.938   4.578  64.548  1.00  0.00    -0.206 OA
HETATM   32  O   LIG     1     -11.444   4.318  64.789  1.00  0.00    -0.206 OA
BRANCH  30  33
HETATM   33  N   LIG     1      -9.912   2.713  65.901  1.00  0.00    -0.225 NA
HETATM   34  H   LIG     1      -9.059   2.319  65.502  1.00  0.00     0.136 HD
HETATM   35  H   LIG     1     -10.748   2.169  65.673  1.00  0.00     0.136 HD
ENDBRANCH  30  33
ENDBRANCH  24  30
ENDBRANCH  17  20
ENDBRANCH  13  17
ENDBRANCH   4   7
ENDBRANCH   1   3
BRANCH   1  36
HETATM   36  C   LIG     1     -13.135  15.504  70.757  1.00  0.00    -0.011 C 
HETATM   37  H   LIG     1     -13.224  16.413  70.152  1.00  0.00     0.050 H 
HETATM   38  H   LIG     1     -12.476  15.741  71.599  1.00  0.00     0.050 H 
BRANCH  36  39
HETATM   39  S   LIG     1     -14.796  15.201  71.463  1.00  0.00    -0.181 SA
HETATM   40  H   LIG     1     -15.416  15.007  70.282  1.00  0.00     0.101 HD
ENDBRANCH  36  39
ENDBRANCH   1  36
BRANCH   1  41
HETATM   41  C   LIG     1     -11.247  14.817  69.155  1.00  0.00    -0.026 A 
HETATM   42  C   LIG     1     -10.106  14.012  69.068  1.00  0.00    -0.067 A 
HETATM   43  C   LIG     1      -8.988  14.445  68.348  1.00  0.00    -0.038 A 
HETATM   44  H   LIG     1     -10.081  13.043  69.562  1.00  0.00     0.085 H 
HETATM   45  C   LIG     1      -9.059  15.693  67.742  1.00  0.00     0.008 A 
HETATM   46  N   LIG     1     -10.142  16.492  67.789  1.00  0.00    -0.272 NA
HETATM   47  H   LIG     1      -8.223  16.093  67.173  1.00  0.00     0.115 H 
HETATM   48  C   LIG     1     -11.201  16.046  68.497  1.00  0.00     0.009 A 
HETATM   49  H   LIG     1     -12.042  16.736  68.501  1.00  0.00     0.115 H 
BRANCH  43  50
HETATM   50  C   LIG     1      -7.743  13.603  68.233  1.00  0.00    -0.025 C 
HETATM   51  H   LIG     1      -7.340  13.391  69.231  1.00  0.00     0.042 H 
HETATM   52  H   LIG     1      -6.985  14.195  67.706  1.00  0.00     0.042 H 
BRANCH  50  53
HETATM   53  C   LIG     1      -7.961  12.281  67.487  1.00  0.00    -0.001 C 
HETATM   54  H   LIG     1      -8.360  11.532  68.179  1.00  0.00     0.064 H 
HETATM   55  H   LIG     1      -7.019  11.887  67.091  1.00  0.00     0.064 H 
BRANCH  53  56
HETATM   56  N   LIG     1      -8.862  12.418  66.358  1.00  0.00    -0.360 N 
HETATM   57  C   LIG     1     -10.130  11.874  66.374  1.00  0.00     0.221 C 
HETATM   58  O   LIG     1     -10.608  11.333  67.365  1.00  0.00    -0.273 OA
HETATM   59  H   LIG     1      -8.466  12.705  65.473  1.00  0.00     0.162 HD
BRANCH  57  60
HETATM   60  C   LIG     1     -10.870  11.983  65.039  1.00  0.00     0.024 C 
HETATM   61  C   LIG     1     -12.367  12.279  65.230  1.00  0.00    -0.051 C 
HETATM   62  C   LIG     1     -12.646  13.731  65.626  1.00  0.00    -0.040 C 
HETATM   63  H   LIG     1     -12.797  11.613  65.990  1.00  0.00     0.034 H 
HETATM   64  H   LIG     1     -12.897  12.059  64.295  1.00  0.00     0.034 H 
HETATM   65  C   LIG     1     -11.993  14.732  64.677  1.00  0.00     0.035 C 
HETATM   66  H   LIG     1     -12.286  13.911  66.645  1.00  0.00     0.036 H 
HETATM   67  H   LIG     1     -13.732  13.885  65.637  1.00  0.00     0.036 H 
HETATM   68  C   LIG     1     -10.503  14.456  64.492  1.00  0.00    -0.040 C 
HETATM   69  H   LIG     1     -12.123  15.743  65.080  1.00  0.00     0.082 H 
HETATM   70  C   LIG     1     -10.211  13.007  64.109  1.00  0.00    -0.051 C 
HETATM   71  H   LIG     1      -9.970  14.695  65.420  1.00  0.00     0.036 H 
HETATM   72  H   LIG     1     -10.099  15.106  63.706  1.00  0.00     0.036 H 
HETATM   73  H   LIG     1      -9.123  12.877  64.076  1.00  0.00     0.034 H 
HETATM   74  H   LIG     1     -10.569  12.823  63.091  1.00  0.00     0.034 H 
HETATM   75  H   LIG     1     -10.790  10.989  64.574  1.00  0.00     0.054 H 
BRANCH  65  76
HETATM   76  O   LIG     1     -12.672  14.713  63.423  1.00  0.00    -0.396 OA
HETATM   77  H   LIG     1     -12.268  14.045  62.848  1.00  0.00     0.210 HD
ENDBRANCH  65  76
ENDBRANCH  57  60
ENDBRANCH  53  56
ENDBRANCH  50  53
ENDBRANCH  43  50
ENDBRANCH   1  41
TORSDOF 14
ENDMDL
MODEL 5
REMARK minimizedAffinity -6.48588562
REMARK minimizedRMSD -1
REMARK  14 active torsions:
REMARK  status: ('A' for Active; 'I' for Inactive)
REMARK    1  A    between atoms: N_1  and  S_2 
REMARK    2  A    between atoms: S_2  and  C_5 
REMARK    3  A    between atoms: C_8  and  C_9 
REMARK    4  A    between atoms: C_9  and  C_10 
REMARK    5  A    between atoms: C_14  and  N_15 
REMARK       I    between atoms: N_15  and  C_16 
REMARK    6  A    between atoms: C_16  and  C_18 
REMARK    7  A    between atoms: C_18  and  C_19 
REMARK    8  A    between atoms: C_18  and  C_21 
REMARK    9  A    between atoms: C_19  and  S_20 
REMARK   10  A    between atoms: C_23  and  C_24 
REMARK   11  A    between atoms: C_24  and  C_25 
REMARK   12  A    between atoms: C_25  and  N_26 
REMARK       I    between atoms: N_26  and  C_27 
REMARK   13  A    between atoms: C_27  and  C_29 
REMARK   14  A    between atoms: C_32  and  O_33 
ROOT
HETATM    1  C   LIG     1     -12.411  14.523  70.818  1.00  0.00     0.058 C 
HETATM    2  H   LIG     1     -13.413  14.932  70.606  1.00  0.00     0.063 H 
ENDROOT
BRANCH   1   3
HETATM    3  C   LIG     1     -12.702  13.101  71.319  1.00  0.00     0.231 C 
HETATM    4  N   LIG     1     -11.996  12.097  70.667  1.00  0.00    -0.327 N 
HETATM    5  H   LIG     1     -11.117  12.352  70.233  1.00  0.00     0.169 HD
HETATM    6  O   LIG     1     -13.527  12.888  72.206  1.00  0.00    -0.272 OA
BRANCH   4   7
HETATM    7  C   LIG     1     -12.212  10.723  70.905  1.00  0.00     0.035 A 
HETATM    8  C   LIG     1     -13.511  10.286  71.155  1.00  0.00    -0.057 A 
HETATM    9  C   LIG     1     -13.775   8.925  71.326  1.00  0.00    -0.080 A 
HETATM   10  H   LIG     1     -14.338  10.989  71.160  1.00  0.00     0.086 H 
HETATM   11  C   LIG     1     -12.729   8.004  71.336  1.00  0.00    -0.076 A 
HETATM   12  H   LIG     1     -14.797   8.577  71.452  1.00  0.00     0.083 H 
HETATM   13  C   LIG     1     -11.407   8.435  71.171  1.00  0.00    -0.052 A 
HETATM   14  H   LIG     1     -12.948   6.949  71.491  1.00  0.00     0.084 H 
HETATM   15  C   LIG     1     -11.165   9.795  70.921  1.00  0.00    -0.051 A 
HETATM   16  H   LIG     1     -10.140  10.131  70.772  1.00  0.00     0.087 H 
BRANCH  13  17
HETATM   17  C   LIG     1     -10.253   7.458  71.258  1.00  0.00    -0.017 C 
HETATM   18  H   LIG     1     -10.580   6.504  70.823  1.00  0.00     0.047 H 
HETATM   19  H   LIG     1      -9.417   7.796  70.633  1.00  0.00     0.047 H 
BRANCH  17  20
HETATM   20  C   LIG     1      -9.725   7.247  72.663  1.00  0.00    -0.054 A 
HETATM   21  C   LIG     1     -10.307   6.282  73.498  1.00  0.00    -0.075 A 
HETATM   22  C   LIG     1      -9.827   6.079  74.793  1.00  0.00    -0.060 A 
HETATM   23  H   LIG     1     -11.141   5.676  73.146  1.00  0.00     0.084 H 
HETATM   24  C   LIG     1      -8.757   6.848  75.264  1.00  0.00     0.074 A 
HETATM   25  H   LIG     1     -10.284   5.319  75.422  1.00  0.00     0.085 H 
HETATM   26  C   LIG     1      -8.156   7.802  74.444  1.00  0.00    -0.060 A 
HETATM   27  C   LIG     1      -8.640   7.999  73.146  1.00  0.00    -0.075 A 
HETATM   28  H   LIG     1      -7.313   8.392  74.800  1.00  0.00     0.085 H 
HETATM   29  H   LIG     1      -8.169   8.745  72.508  1.00  0.00     0.084 H 
BRANCH  24  30
HETATM   30  S   LIG     1      -8.154   6.558  76.902  1.00  0.00     0.239 S 
HETATM   31  O   LIG     1      -7.363   7.704  77.307  1.00  0.00    -0.206 OA
HETATM   32  O   LIG     1      -7.673   5.210  77.009  1.00  0.00    -0.206 OA
BRANCH  30  33
HETATM   33  N   LIG     1      -9.546   6.608  77.841  1.00  0.00    -0.225 NA
HETATM   34  H   LIG     1      -9.475   7.373  78.513  1.00  0.00     0.136 HD
HETATM   35  H   LIG     1      -9.676   5.696  78.287  1.00  0.00     0.136 HD
ENDBRANCH  30  33
ENDBRANCH  24  30
ENDBRANCH  17  20
ENDBRANCH  13  17
ENDBRANCH   4   7
ENDBRANCH   1   3
BRANCH   1  36
HETATM   36  C   LIG     1     -11.840  15.431  71.934  1.00  0.00    -0.011 C 
HETATM   37  H   LIG     1     -11.541  16.390  71.497  1.00  0.00     0.050 H 
HETATM   38  H   LIG     1     -10.940  14.974  72.355  1.00  0.00     0.050 H 
BRANCH  36  39
HETATM   39  S   LIG     1     -12.929  15.838  73.347  1.00  0.00    -0.181 SA
HETATM   40  H   LIG     1     -13.896  16.426  72.614  1.00  0.00     0.101 HD
ENDBRANCH  36  39
ENDBRANCH   1  36
BRANCH   1  41
HETATM   41  C   LIG     1     -11.627  14.578  69.519  1.00  0.00    -0.026 A 
HETATM   42  C   LIG     1     -12.183  14.216  68.287  1.00  0.00    -0.067 A 
HETATM   43  C   LIG     1     -11.427  14.311  67.115  1.00  0.00    -0.038 A 
HETATM   44  H   LIG     1     -13.209  13.858  68.234  1.00  0.00     0.085 H 
HETATM   45  C   LIG     1     -10.118  14.763  67.230  1.00  0.00     0.008 A 
HETATM   46  N   LIG     1      -9.550  15.135  68.393  1.00  0.00    -0.272 NA
HETATM   47  H   LIG     1      -9.473  14.854  66.360  1.00  0.00     0.115 H 
HETATM   48  C   LIG     1     -10.306  15.026  69.506  1.00  0.00     0.009 A 
HETATM   49  H   LIG     1      -9.791  15.336  70.413  1.00  0.00     0.115 H 
BRANCH  43  50
HETATM   50  C   LIG     1     -11.994  13.931  65.772  1.00  0.00    -0.025 C 
HETATM   51  H   LIG     1     -12.765  14.651  65.473  1.00  0.00     0.042 H 
HETATM   52  H   LIG     1     -12.495  12.960  65.881  1.00  0.00     0.042 H 
BRANCH  50  53
HETATM   53  C   LIG     1     -10.939  13.832  64.663  1.00  0.00    -0.001 C 
HETATM   54  H   LIG     1     -10.505  14.821  64.484  1.00  0.00     0.064 H 
HETATM   55  H   LIG     1     -11.383  13.498  63.719  1.00  0.00     0.064 H 
BRANCH  53  56
HETATM   56  N   LIG     1      -9.880  12.894  64.981  1.00  0.00    -0.360 N 
HETATM   57  C   LIG     1     -10.001  11.547  64.709  1.00  0.00     0.221 C 
HETATM   58  O   LIG     1     -10.955  11.076  64.100  1.00  0.00    -0.273 OA
HETATM   59  H   LIG     1      -9.158  13.199  65.622  1.00  0.00     0.162 HD
BRANCH  57  60
HETATM   60  C   LIG     1      -8.856  10.695  65.260  1.00  0.00     0.024 C 
HETATM   61  C   LIG     1      -8.257  11.292  66.544  1.00  0.00    -0.051 C 
HETATM   62  C   LIG     1      -9.144  11.086  67.774  1.00  0.00    -0.040 C 
HETATM   63  H   LIG     1      -8.067  12.365  66.417  1.00  0.00     0.034 H 
HETATM   64  H   LIG     1      -7.279  10.828  66.732  1.00  0.00     0.034 H 
HETATM   65  C   LIG     1      -9.545   9.626  67.969  1.00  0.00     0.035 C 
HETATM   66  H   LIG     1     -10.047  11.700  67.684  1.00  0.00     0.036 H 
HETATM   67  H   LIG     1      -8.601  11.442  68.657  1.00  0.00     0.036 H 
HETATM   68  C   LIG     1     -10.156   9.028  66.703  1.00  0.00    -0.040 C 
HETATM   69  H   LIG     1     -10.275   9.562  68.783  1.00  0.00     0.082 H 
HETATM   70  C   LIG     1      -9.284   9.238  65.467  1.00  0.00    -0.051 C 
HETATM   71  H   LIG     1     -11.141   9.475  66.527  1.00  0.00     0.036 H 
HETATM   72  H   LIG     1     -10.306   7.949  66.837  1.00  0.00     0.036 H 
HETATM   73  H   LIG     1      -9.829   8.853  64.597  1.00  0.00     0.034 H 
HETATM   74  H   LIG     1      -8.381   8.626  65.553  1.00  0.00     0.034 H 
HETATM   75  H   LIG     1      -8.071  10.720  64.490  1.00  0.00     0.054 H 
BRANCH  65  76
HETATM   76  O   LIG     1      -8.410   8.873  68.390  1.00  0.00    -0.396 OA
HETATM   77  H   LIG     1      -7.935   8.542  67.611  1.00  0.00     0.210 HD
ENDBRANCH  65  76
ENDBRANCH  57  60
ENDBRANCH  53  56
ENDBRANCH  50  53
ENDBRANCH  43  50
ENDBRANCH   1  41
TORSDOF 14
ENDMDL
MODEL 6
REMARK minimizedAffinity -6.26710129
REMARK minimizedRMSD -1
REMARK  14 active torsions:
REMARK  status: ('A' for Active; 'I' for Inactive)
REMARK    1  A    between atoms: N_1  and  S_2 
REMARK    2  A    between atoms: S_2  and  C_5 
REMARK    3  A    between atoms: C_8  and  C_9 
REMARK    4  A    between atoms: C_9  and  C_10 
REMARK    5  A    between atoms: C_14  and  N_15 
REMARK       I    between atoms: N_15  and  C_16 
REMARK    6  A    between atoms: C_16  and  C_18 
REMARK    7  A    between atoms: C_18  and  C_19 
REMARK    8  A    between atoms: C_18  and  C_21 
REMARK    9  A    between atoms: C_19  and  S_20 
REMARK   10  A    between atoms: C_23  and  C_24 
REMARK   11  A    between atoms: C_24  and  C_25 
REMARK   12  A    between atoms: C_25  and  N_26 
REMARK       I    between atoms: N_26  and  C_27 
REMARK   13  A    between atoms: C_27  and  C_29 
REMARK   14  A    between atoms: C_32  and  O_33 
ROOT
HETATM    1  C   LIG     1     -12.241  14.660  70.486  1.00  0.00     0.058 C 
HETATM    2  H   LIG     1     -13.176  14.918  69.961  1.00  0.00     0.063 H 
ENDROOT
BRANCH   1   3
HETATM    3  C   LIG     1     -12.522  13.261  71.053  1.00  0.00     0.231 C 
HETATM    4  N   LIG     1     -11.842  12.227  70.419  1.00  0.00    -0.327 N 
HETATM    5  H   LIG     1     -10.977  12.459  69.946  1.00  0.00     0.169 HD
HETATM    6  O   LIG     1     -13.317  13.089  71.976  1.00  0.00    -0.272 OA
BRANCH   4   7
HETATM    7  C   LIG     1     -12.056  10.865  70.721  1.00  0.00     0.035 A 
HETATM    8  C   LIG     1     -13.306  10.477  71.197  1.00  0.00    -0.057 A 
HETATM    9  C   LIG     1     -13.579   9.128  71.441  1.00  0.00    -0.080 A 
HETATM   10  H   LIG     1     -14.098  11.207  71.328  1.00  0.00     0.086 H 
HETATM   11  C   LIG     1     -12.575   8.173  71.293  1.00  0.00    -0.076 A 
HETATM   12  H   LIG     1     -14.574   8.817  71.746  1.00  0.00     0.083 H 
HETATM   13  C   LIG     1     -11.288   8.556  70.895  1.00  0.00    -0.052 A 
HETATM   14  H   LIG     1     -12.797   7.129  71.506  1.00  0.00     0.084 H 
HETATM   15  C   LIG     1     -11.051   9.904  70.578  1.00  0.00    -0.051 A 
HETATM   16  H   LIG     1     -10.057  10.201  70.250  1.00  0.00     0.087 H 
BRANCH  13  17
HETATM   17  C   LIG     1     -10.167   7.542  70.807  1.00  0.00    -0.017 C 
HETATM   18  H   LIG     1      -9.216   8.071  70.949  1.00  0.00     0.047 H 
HETATM   19  H   LIG     1     -10.233   6.825  71.635  1.00  0.00     0.047 H 
BRANCH  17  20
HETATM   20  C   LIG     1     -10.147   6.753  69.512  1.00  0.00    -0.054 A 
HETATM   21  C   LIG     1     -11.071   7.040  68.497  1.00  0.00    -0.075 A 
HETATM   22  C   LIG     1     -11.060   6.320  67.301  1.00  0.00    -0.060 A 
HETATM   23  H   LIG     1     -11.809   7.830  68.627  1.00  0.00     0.084 H 
HETATM   24  C   LIG     1     -10.120   5.301  67.114  1.00  0.00     0.074 A 
HETATM   25  H   LIG     1     -11.777   6.565  66.521  1.00  0.00     0.085 H 
HETATM   26  C   LIG     1      -9.184   5.010  68.106  1.00  0.00    -0.060 A 
HETATM   27  C   LIG     1      -9.199   5.737  69.301  1.00  0.00    -0.075 A 
HETATM   28  H   LIG     1      -8.441   4.228  67.959  1.00  0.00     0.085 H 
HETATM   29  H   LIG     1      -8.467   5.507  70.074  1.00  0.00     0.084 H 
BRANCH  24  30
HETATM   30  S   LIG     1     -10.113   4.417  65.581  1.00  0.00     0.239 S 
HETATM   31  O   LIG     1      -9.884   3.013  65.864  1.00  0.00    -0.206 OA
HETATM   32  O   LIG     1      -9.350   5.143  64.606  1.00  0.00    -0.206 OA
BRANCH  30  33
HETATM   33  N   LIG     1     -11.709   4.525  65.065  1.00  0.00    -0.225 NA
HETATM   34  H   LIG     1     -12.109   3.588  65.003  1.00  0.00     0.136 HD
HETATM   35  H   LIG     1     -11.734   5.030  64.176  1.00  0.00     0.136 HD
ENDBRANCH  30  33
ENDBRANCH  24  30
ENDBRANCH  17  20
ENDBRANCH  13  17
ENDBRANCH   4   7
ENDBRANCH   1   3
BRANCH   1  36
HETATM   36  C   LIG     1     -12.104  15.727  71.598  1.00  0.00    -0.011 C 
HETATM   37  H   LIG     1     -12.090  16.723  71.140  1.00  0.00     0.050 H 
HETATM   38  H   LIG     1     -11.148  15.598  72.115  1.00  0.00     0.050 H 
BRANCH  36  39
HETATM   39  S   LIG     1     -13.395  15.785  72.893  1.00  0.00    -0.181 SA
HETATM   40  H   LIG     1     -14.426  16.009  72.054  1.00  0.00     0.101 HD
ENDBRANCH  36  39
ENDBRANCH   1  36
BRANCH   1  41
HETATM   41  C   LIG     1     -11.128  14.702  69.453  1.00  0.00    -0.026 A 
HETATM   42  C   LIG     1     -11.373  14.616  68.078  1.00  0.00    -0.067 A 
HETATM   43  C   LIG     1     -10.315  14.687  67.166  1.00  0.00    -0.038 A 
HETATM   44  H   LIG     1     -12.389  14.493  67.710  1.00  0.00     0.085 H 
HETATM   45  C   LIG     1      -9.034  14.834  67.680  1.00  0.00     0.008 A 
HETATM   46  N   LIG     1      -8.757  14.935  68.994  1.00  0.00    -0.272 NA
HETATM   47  H   LIG     1      -8.166  14.889  67.028  1.00  0.00     0.115 H 
HETATM   48  C   LIG     1      -9.800  14.857  69.847  1.00  0.00     0.009 A 
HETATM   49  H   LIG     1      -9.512  14.941  70.893  1.00  0.00     0.115 H 
BRANCH  43  50
HETATM   50  C   LIG     1     -10.543  14.600  65.679  1.00  0.00    -0.025 C 
HETATM   51  H   LIG     1     -11.291  13.829  65.459  1.00  0.00     0.042 H 
HETATM   52  H   LIG     1      -9.605  14.271  65.214  1.00  0.00     0.042 H 
BRANCH  50  53
HETATM   53  C   LIG     1     -10.984  15.925  65.045  1.00  0.00    -0.001 C 
HETATM   54  H   LIG     1     -11.966  16.208  65.436  1.00  0.00     0.064 H 
HETATM   55  H   LIG     1     -11.083  15.833  63.957  1.00  0.00     0.064 H 
BRANCH  53  56
HETATM   56  N   LIG     1     -10.042  17.001  65.288  1.00  0.00    -0.360 N 
HETATM   57  C   LIG     1     -10.285  17.976  66.232  1.00  0.00     0.221 C 
HETATM   58  O   LIG     1     -11.251  17.944  66.986  1.00  0.00    -0.273 OA
HETATM   59  H   LIG     1      -9.325  17.164  64.592  1.00  0.00     0.162 HD
BRANCH  57  60
HETATM   60  C   LIG     1      -9.260  19.112  66.233  1.00  0.00     0.024 C 
HETATM   61  C   LIG     1      -9.395  20.013  67.471  1.00  0.00    -0.051 C 
HETATM   62  C   LIG     1      -8.844  19.370  68.746  1.00  0.00    -0.040 C 
HETATM   63  H   LIG     1     -10.446  20.286  67.635  1.00  0.00     0.034 H 
HETATM   64  H   LIG     1      -8.860  20.954  67.289  1.00  0.00     0.034 H 
HETATM   65  C   LIG     1      -7.414  18.864  68.575  1.00  0.00     0.035 C 
HETATM   66  H   LIG     1      -9.488  18.537  69.047  1.00  0.00     0.036 H 
HETATM   67  H   LIG     1      -8.880  20.112  69.553  1.00  0.00     0.036 H 
HETATM   68  C   LIG     1      -7.272  17.955  67.356  1.00  0.00    -0.040 C 
HETATM   69  H   LIG     1      -7.122  18.307  69.472  1.00  0.00     0.082 H 
HETATM   70  C   LIG     1      -7.830  18.582  66.080  1.00  0.00    -0.051 C 
HETATM   71  H   LIG     1      -7.789  17.007  67.545  1.00  0.00     0.036 H 
HETATM   72  H   LIG     1      -6.213  17.722  67.188  1.00  0.00     0.036 H 
HETATM   73  H   LIG     1      -7.762  17.838  65.278  1.00  0.00     0.034 H 
HETATM   74  H   LIG     1      -7.188  19.414  65.776  1.00  0.00     0.034 H 
HETATM   75  H   LIG     1      -9.498  19.727  65.353  1.00  0.00     0.054 H 
BRANCH  65  76
HETATM   76  O   LIG     1      -6.523  19.974  68.487  1.00  0.00    -0.396 OA
HETATM   77  H   LIG     1      -6.439  20.247  67.560  1.00  0.00     0.210 HD
ENDBRANCH  65  76
ENDBRANCH  57  60
ENDBRANCH  53  56
ENDBRANCH  50  53
ENDBRANCH  43  50
ENDBRANCH   1  41
TORSDOF 14
ENDMDL
